CemigDFeeders/SLAT309/SLAT309SegmentosMT.dss
new line.TR10150141 bus1=BMT6263728B.1,bus2=BMT149111556.1,Phases=1,Linecode=CAB202_3_1,Length=0.079680000,Units=km
new line.TR10150148 bus1=BMT6263749B.1,bus2=BMT6263770B.1,Phases=1,Linecode=CAB202_3_1,Length=0.099280000,Units=km
new line.TR10150155 bus1=BMT6263770B.1,bus2=BMT6263728B.1,Phases=1,Linecode=CAB202_3_1,Length=0.090300000,Units=km
new line.TR10150162 bus1=BMT149111556.1,bus2=BMT6263791B.1,Phases=1,Linecode=CAB202_3_1,Length=0.099800000,Units=km
new line.TR10150169 bus1=BMT6263791B.1,bus2=BMT6263819B.1,Phases=1,Linecode=CAB202_3_1,Length=0.091040000,Units=km
new line.TR10150183 bus1=BMT6263819B.1,bus2=BMT6263826B.1,Phases=1,Linecode=CAB202_3_1,Length=0.090030000,Units=km
new line.TR10150190 bus1=BMT6263826B.1,bus2=BMT149111440.1,Phases=1,Linecode=CAB202_3_1,Length=0.149220000,Units=km
new line.TR10150204 bus1=BMT149111440.1,bus2=BMT6263847B.1,Phases=1,Linecode=CAB202_3_1,Length=0.100040000,Units=km
new line.TR10150211 bus1=BMT6263847B.1,bus2=BMT6263861B.1,Phases=1,Linecode=CAB202_3_1,Length=0.129660000,Units=km
new line.TR10150225 bus1=BMT6263861B.1,bus2=BMT6263868B.1,Phases=1,Linecode=CAB202_3_1,Length=0.134080000,Units=km
new line.TR10150232 bus1=BMT6263868B.1,bus2=BMT149111557.1,Phases=1,Linecode=CAB202_3_1,Length=0.133590000,Units=km
new line.TR10150239 bus1=BMT149111557.1,bus2=BMT6264008B.1,Phases=1,Linecode=CAB202_3_1,Length=0.067920000,Units=km
new line.TR10150330 bus1=BMT6264008B.1,bus2=BMT149111558.1,Phases=1,Linecode=CAB202_3_1,Length=0.079790000,Units=km
new line.TR10156490 bus1=BMT102964108.1.2.3,bus2=BMT102964115.1.2.3,Phases=3,Linecode=CABA06_3_3,Length=0.022810000,Units=km
new line.TR10176881 bus1=BMT6320442B.1.2.3,bus2=BMT6320470B.1.2.3,Phases=3,Linecode=CAB107_3_3,Length=0.064560000,Units=km
new line.TR10176895 bus1=BMT6320470B.1.2.3,bus2=BMT102963023.1.2.3,Phases=3,Linecode=CAB107_3_3,Length=0.007810000,Units=km
new line.TR10176902 bus1=BMT6320477B.1.2.3,bus2=BMT166918525.1.2.3,Phases=3,Linecode=CAB107_3_3,Length=0.055490000,Units=km
new line.TR10176909 bus1=BMT6320484B.1.2.3,bus2=BMT102963051.1.2.3,Phases=3,Linecode=CAB107_3_3,Length=0.120690000,Units=km
new line.TR10176916 bus1=BMT6320498B.1.2.3,bus2=BMT3653210B.1.2.3,Phases=3,Linecode=CAB107_3_3,Length=0.078800000,Units=km
new line.TR10176951 bus1=BMT6320568B.1.2.3,bus2=BMT3653217B.1.2.3,Phases=3,Linecode=CAB107_3_3,Length=0.075320000,Units=km
new line.TR10176986 bus1=BMT6320617B.1.2.3,bus2=BMT3653224B.1.2.3,Phases=3,Linecode=CAB107_3_3,Length=0.082020000,Units=km
new line.TR10176993 bus1=BMT6320631B.1.2.3,bus2=BMT3637313B.1.2.3,Phases=3,Linecode=CAB107_3_3,Length=0.075320000,Units=km
new line.TR10177000 bus1=BMT6320638B.1.2.3,bus2=BMT6320645B.1.2.3,Phases=3,Linecode=CAB107_3_3,Length=0.038090000,Units=km
new line.TR10177007 bus1=BMT6320645B.1.2.3,bus2=BMT6320687B.1.2.3,Phases=3,Linecode=CAB107_3_3,Length=0.036730000,Units=km
new line.TR10177028 bus1=BMT6320687B.1.2.3,bus2=BMT166918527.1.2.3,Phases=3,Linecode=CAB107_3_3,Length=0.039460000,Units=km
new line.TR10177056 bus1=BMT6320736B.1.2.3,bus2=BMT2492288B.1.2.3,Phases=3,Linecode=CAB207_3_3,Length=0.077490000,Units=km
new line.TR10178813 bus1=BMT6323242C.1.2.3,bus2=BMT6323256C.1.2.3,Phases=3,Linecode=CABA08_3_3,Length=0.023030000,Units=km
new line.TR10178834 bus1=BMT6323256C.1.2.3,bus2=BMT6323319C.1.2.3,Phases=3,Linecode=CABA08_3_3,Length=0.047520000,Units=km
new line.TR10178897 bus1=BMT6323319C.1.2.3,bus2=BMT6323326C.1.2.3,Phases=3,Linecode=CABA08_3_3,Length=0.027030000,Units=km
new line.TR10178911 bus1=BMT6323326C.1.2.3,bus2=BMT6323333C.1.2.3,Phases=3,Linecode=CABA08_3_3,Length=0.020620000,Units=km
new line.TR10455439 bus1=BMT155361872.1.2.3,bus2=BMT6716390B.1.2.3,Phases=3,Linecode=CAB103_3_3,Length=0.059700000,Units=km
new line.TR10455446 bus1=BMT6716390B.1.2.3,bus2=BMT6716397B.1.2.3,Phases=3,Linecode=CAB103_3_3,Length=0.069450000,Units=km
new line.TR10455453 bus1=BMT6716397B.1.2.3,bus2=BMT6716404B.1.2.3,Phases=3,Linecode=CAB103_3_3,Length=0.069380000,Units=km
new line.TR10455460 bus1=BMT6716404B.1.2.3,bus2=BMT102963849.1.2.3,Phases=3,Linecode=CAB103_3_3,Length=0.069450000,Units=km
new line.TR10455467 bus1=BMT102964892.1.2.3,bus2=BMT102964899.1.2.3,Phases=3,Linecode=CAB103_3_3,Length=0.030490000,Units=km
new line.TR11374224 bus1=BMT162496654.1.2.3,bus2=BMT1243551B.1.2.3,Phases=3,Linecode=CABA06_3_3,Length=0.033630000,Units=km
new line.TR11374231 bus1=BMT1243551B.1.2.3,bus2=BMT1243544B.1.2.3,Phases=3,Linecode=CABA06_3_3,Length=0.028440000,Units=km
new line.TR11374238 bus1=BMT1243544B.1.2.3,bus2=BMT162496656.1.2.3,Phases=3,Linecode=CABA06_3_3,Length=0.035240000,Units=km
new line.TR11377801 bus1=BMT163695779.1.2.3,bus2=BMT163695781.1.2.3,Phases=3,Linecode=CAB207_3_3,Length=0.074970000,Units=km
new line.TR11377808 bus1=BMT163695781.1.2.3,bus2=BMT7581345B.1.2.3,Phases=3,Linecode=CAB207_3_3,Length=0.072890000,Units=km
new line.TR11377815 bus1=BMT7581345B.1.2.3,bus2=BMT102963443.1.2.3,Phases=3,Linecode=CAB207_3_3,Length=0.072210000,Units=km
new line.TR11575047 bus1=BMT149165724.1.2.3,bus2=BMT7778710B.1.2.3,Phases=3,Linecode=CAB207_3_3,Length=0.065820000,Units=km
new line.TR11575054 bus1=BMT7778710B.1.2.3,bus2=BMT149165725.1.2.3,Phases=3,Linecode=CAB207_3_3,Length=0.056660000,Units=km
new line.TR11575096 bus1=BMT7778850B.1.2.3,bus2=BMT7605068B.1.2.3,Phases=3,Linecode=CAB207_3_3,Length=0.062310000,Units=km
new line.TR11575103 bus1=BMT7605082B.1.2.3,bus2=BMT7778850B.1.2.3,Phases=3,Linecode=CAB207_3_3,Length=0.061640000,Units=km
new line.TR11575229 bus1=BMT7605047B.1.2.3,bus2=BMT106943118.1.2.3,Phases=3,Linecode=CAB207_3_3,Length=0.060850000,Units=km
new line.TR11575236 bus1=BMT163696007.1.2.3,bus2=BMT2492372B.1.2.3,Phases=3,Linecode=CAB207_3_3,Length=0.031840000,Units=km
new line.TR11575271 bus1=BMT2492372B.1.2.3,bus2=BMT7779109B.1.2.3,Phases=3,Linecode=CAB207_3_3,Length=0.028290000,Units=km
new line.TR11575278 bus1=BMT7779109B.1.2.3,bus2=BMT163696008.1.2.3,Phases=3,Linecode=CAB207_3_3,Length=0.056590000,Units=km
new line.TR11575285 bus1=BMT163696008.1.2.3,bus2=BMT7779165B.1.2.3,Phases=3,Linecode=CAB207_3_3,Length=0.078670000,Units=km
new line.TR11575292 bus1=BMT7779165B.1.2.3,bus2=BMT2492435B.1.2.3,Phases=3,Linecode=CAB207_3_3,Length=0.075950000,Units=km
new line.TR11575299 bus1=BMT149165722.1.2.3,bus2=BMT7779193B.1.2.3,Phases=3,Linecode=CAB207_3_3,Length=0.067290000,Units=km
new line.TR11575306 bus1=BMT7779193B.1.2.3,bus2=BMT149165724.1.2.3,Phases=3,Linecode=CAB207_3_3,Length=0.067290000,Units=km
new line.TR11575327 bus1=BMT3137744B.1.2.3,bus2=BMT7779249B.1.2.3,Phases=3,Linecode=CAB207_3_3,Length=0.065970000,Units=km
new line.TR11575334 bus1=BMT7779249B.1.2.3,bus2=BMT3137730B.1.2.3,Phases=3,Linecode=CAB207_3_3,Length=0.040470000,Units=km
new line.TR10393608 bus1=BMT6651290B.1.2.3,bus2=BMT163696009.1.2.3,Phases=3,Linecode=CAB207_3_3,Length=0.027810000,Units=km
new line.TR10393615 bus1=BMT163696008.1.2.3,bus2=BMT6651304B.1.2.3,Phases=3,Linecode=CAB207_3_3,Length=0.110300000,Units=km
new line.TR10393622 bus1=BMT6651304B.1.2.3,bus2=BMT6651290B.1.2.3,Phases=3,Linecode=CAB207_3_3,Length=0.081860000,Units=km
new line.TR10917488 bus1=BMT116907940.1.2.3,bus2=BMT7159826B.1.2.3,Phases=3,Linecode=CAB107_3_3,Length=0.027670000,Units=km
new line.TR10917495 bus1=BMT7159826B.1.2.3,bus2=BMT6320442B.1.2.3,Phases=3,Linecode=CAB107_3_3,Length=0.034220000,Units=km
new line.TR11482668 bus1=BMT3201136C.1.2.3,bus2=BMT3201129C.1.2.3,Phases=3,Linecode=CABA08_3_3,Length=0.044030000,Units=km
new line.TR11482675 bus1=BMT3201129C.1.2.3,bus2=BMT3201122C.1.2.3,Phases=3,Linecode=CABA08_3_3,Length=0.050350000,Units=km
new line.TR11483102 bus1=BMT157790066.1.2.3,bus2=BMT7689999C.1.2.3,Phases=3,Linecode=CABA08_3_3,Length=0.028470000,Units=km
new line.TR11483109 bus1=BMT7689999C.1.2.3,bus2=BMT3201108C.1.2.3,Phases=3,Linecode=CABA08_3_3,Length=0.026580000,Units=km
new line.TR11483130 bus1=BMT3201108C.1.2.3,bus2=BMT7690013C.1.2.3,Phases=3,Linecode=CABA08_3_3,Length=0.029740000,Units=km
new line.TR11483137 bus1=BMT7690013C.1.2.3,bus2=BMT3201101C.1.2.3,Phases=3,Linecode=CABA08_3_3,Length=0.027520000,Units=km
new line.TR11483158 bus1=BMT3201101C.1.2.3,bus2=BMT7690034C.1.2.3,Phases=3,Linecode=CABA08_3_3,Length=0.031960000,Units=km
new line.TR11483165 bus1=BMT7690034C.1.2.3,bus2=BMT3201094C.1.2.3,Phases=3,Linecode=CABA08_3_3,Length=0.033850000,Units=km
new line.TR11483186 bus1=BMT3201094C.1.2.3,bus2=BMT7690048C.1.2.3,Phases=3,Linecode=CABA08_3_3,Length=0.032910000,Units=km
new line.TR11483193 bus1=BMT7690048C.1.2.3,bus2=BMT3201087C.1.2.3,Phases=3,Linecode=CABA08_3_3,Length=0.032910000,Units=km
new line.TR11483214 bus1=BMT3201087C.1.2.3,bus2=BMT7690062C.1.2.3,Phases=3,Linecode=CABA08_3_3,Length=0.030690000,Units=km
new line.TR11483228 bus1=BMT7690062C.1.2.3,bus2=BMT3201080C.1.2.3,Phases=3,Linecode=CABA08_3_3,Length=0.030690000,Units=km
new line.TR11483256 bus1=BMT3201080C.1.2.3,bus2=BMT7690083C.1.2.3,Phases=3,Linecode=CABA08_3_3,Length=0.026580000,Units=km
new line.TR11483270 bus1=BMT7690083C.1.2.3,bus2=BMT3201073C.1.2.3,Phases=3,Linecode=CABA08_3_3,Length=0.027870000,Units=km
new line.TR11483305 bus1=BMT3201073C.1.2.3,bus2=BMT7690090C.1.2.3,Phases=3,Linecode=CABA08_3_3,Length=0.032710000,Units=km
new line.TR11483312 bus1=BMT7690090C.1.2.3,bus2=BMT3201066C.1.2.3,Phases=3,Linecode=CABA08_3_3,Length=0.028170000,Units=km
new line.TR11483431 bus1=BMT3201066C.1.2.3,bus2=BMT7690160C.1.2.3,Phases=3,Linecode=CABA08_3_3,Length=0.033540000,Units=km
new line.TR11483438 bus1=BMT7690160C.1.2.3,bus2=BMT3169524C.1.2.3,Phases=3,Linecode=CABA08_3_3,Length=0.042390000,Units=km
new line.TR11483480 bus1=BMT3169517C.1.2.3,bus2=BMT7690223C.1.2.3,Phases=3,Linecode=CABA08_3_3,Length=0.025500000,Units=km
new line.TR11483487 bus1=BMT7690223C.1.2.3,bus2=BMT157790068.1.2.3,Phases=3,Linecode=CABA08_3_3,Length=0.025500000,Units=km
new line.TR11483494 bus1=BMT157790068.1.2.3,bus2=BMT3169510C.1.2.3,Phases=3,Linecode=CABA08_3_3,Length=0.055190000,Units=km
new line.TR11483536 bus1=BMT3169510C.1.2.3,bus2=BMT7690251C.1.2.3,Phases=3,Linecode=CABA08_3_3,Length=0.026920000,Units=km
new line.TR11483543 bus1=BMT7690251C.1.2.3,bus2=BMT3169503C.1.2.3,Phases=3,Linecode=CABA08_3_3,Length=0.028330000,Units=km
new line.TR11483627 bus1=BMT3169503C.1.2.3,bus2=BMT7690279C.1.2.3,Phases=3,Linecode=CABA08_3_3,Length=0.028330000,Units=km
new line.TR11483837 bus1=BMT7690279C.1.2.3,bus2=BMT3069403C.1.2.3,Phases=3,Linecode=CABA08_3_3,Length=0.038220000,Units=km
new line.TR11483991 bus1=BMT3069403C.1.2.3,bus2=BMT7690461C.1.2.3,Phases=3,Linecode=CABA08_3_3,Length=0.028330000,Units=km
new line.TR11483998 bus1=BMT7690461C.1.2.3,bus2=BMT157790069.1.2.3,Phases=3,Linecode=CABA08_3_3,Length=0.029740000,Units=km
new line.TR11484019 bus1=BMT157790069.1.2.3,bus2=BMT7690468C.1.2.3,Phases=3,Linecode=CABA08_3_3,Length=0.029740000,Units=km
new line.TR11484026 bus1=BMT7690468C.1.2.3,bus2=BMT3169489C.1.2.3,Phases=3,Linecode=CABA08_3_3,Length=0.029740000,Units=km
new line.TR11484047 bus1=BMT3169489C.1.2.3,bus2=BMT7690496C.1.2.3,Phases=3,Linecode=CABA08_3_3,Length=0.030490000,Units=km
new line.TR11484054 bus1=BMT7690496C.1.2.3,bus2=BMT3169482C.1.2.3,Phases=3,Linecode=CABA08_3_3,Length=0.031160000,Units=km
new line.TR11484075 bus1=BMT3169482C.1.2.3,bus2=BMT7690895C.1.2.3,Phases=3,Linecode=CABA08_3_3,Length=0.028330000,Units=km
new line.TR11484082 bus1=BMT7690895C.1.2.3,bus2=BMT3169475C.1.2.3,Phases=3,Linecode=CABA08_3_3,Length=0.032570000,Units=km
new line.TR11484103 bus1=BMT3169475C.1.2.3,bus2=BMT7690902C.1.2.3,Phases=3,Linecode=CABA08_3_3,Length=0.029420000,Units=km
new line.TR11484117 bus1=BMT7690902C.1.2.3,bus2=BMT3169468C.1.2.3,Phases=3,Linecode=CABA08_3_3,Length=0.028030000,Units=km
new line.TR11489409 bus1=BMT167511074.1.2.3,bus2=BMT7696110B.1.2.3,Phases=3,Linecode=CAB107_3_3,Length=0.056460000,Units=km
new line.TR11489416 bus1=BMT7696110B.1.2.3,bus2=BMT102963569.1.2.3,Phases=3,Linecode=CAB107_3_3,Length=0.057450000,Units=km
new line.TR11489486 bus1=BMT163694345.1.2.3,bus2=BMT102963527.1.2.3,Phases=3,Linecode=CAB207_3_3,Length=0.044120000,Units=km
new line.TR11489493 bus1=BMT155361862.1.2.3,bus2=BMT2588692B.1.2.3,Phases=3,Linecode=CAB202_3_3,Length=0.046890000,Units=km
new line.TR11489556 bus1=BMT7696264B.1.2.3,bus2=BMT167511074.1.2.3,Phases=3,Linecode=CAB107_3_3,Length=0.057890000,Units=km
new line.TR11489584 bus1=BMT7696278B.1.2.3,bus2=BMT129297289.1.2.3,Phases=3,Linecode=CAB107_3_3,Length=0.056340000,Units=km
new line.TR11489598 bus1=BMT2492491B.1.2.3,bus2=BMT7696327B.1.2.3,Phases=3,Linecode=CAB107_3_3,Length=0.063530000,Units=km
new line.TR11489605 bus1=BMT7696327B.1.2.3,bus2=BMT7696278B.1.2.3,Phases=3,Linecode=CAB107_3_3,Length=0.091580000,Units=km
new line.TR11489829 bus1=BMT7696614B.1.2.3,bus2=BMT3415287B.1.2.3,Phases=3,Linecode=CAB207_3_3,Length=0.060100000,Units=km
new line.TR11489843 bus1=BMT3659223B.1.2.3,bus2=BMT163695782.1.2.3,Phases=3,Linecode=CAB207_3_3,Length=0.071140000,Units=km
new line.TR11489850 bus1=BMT163695782.1.2.3,bus2=BMT7696614B.1.2.3,Phases=3,Linecode=CAB207_3_3,Length=0.058240000,Units=km
new line.TR11489857 bus1=BMT163695782.1.2.3,bus2=BMT163695783.1.2.3,Phases=3,Linecode=CAB103_3_3,Length=0.004000000,Units=km
new line.TR11513902 bus1=BMT3169468C.1.2.3,bus2=BMT7690944C.1.2.3,Phases=3,Linecode=CABA08_3_3,Length=0.024180000,Units=km
new line.TR11513930 bus1=BMT7690944C.1.2.3,bus2=BMT157790071.1.2.3,Phases=3,Linecode=CABA08_3_3,Length=0.034030000,Units=km
new line.TR11513937 bus1=BMT157790071.1.2.3,bus2=BMT3169440C.1.2.3,Phases=3,Linecode=CABA08_3_3,Length=0.049670000,Units=km
new line.TR10075178 bus1=BMT169106836.1.2.3,bus2=BMT169106837.1.2.3,Phases=3,Linecode=CABA08_3_3,Length=0.025820000,Units=km
new line.TR10078909 bus1=BMT6131393B.3,bus2=BMT155361868.3,Phases=1,Linecode=CAB202_3_1,Length=0.043860000,Units=km
new line.TR11251157 bus1=BMT1242375B.1.2.3,bus2=BMT102965928.1.2.3,Phases=3,Linecode=CAB107_3_3,Length=0.048120000,Units=km
new line.TR11251164 bus1=BMT102965928.1.2.3,bus2=BMT1242382B.1.2.3,Phases=3,Linecode=CAB107_3_3,Length=0.020260000,Units=km
new line.TR11553893 bus1=BMT1236978C.1.2.3,bus2=BMT1236985C.1.2.3,Phases=3,Linecode=CABA08_3_3,Length=0.036260000,Units=km
new line.TR11553907 bus1=BMT1236964C.1.2.3,bus2=BMT1236971C.1.2.3,Phases=3,Linecode=CABA08_3_3,Length=0.033540000,Units=km
new line.TR11553914 bus1=BMT1236971C.1.2.3,bus2=BMT1236978C.1.2.3,Phases=3,Linecode=CABA08_3_3,Length=0.034490000,Units=km
new line.TR11553956 bus1=BMT1236950C.1.2.3,bus2=BMT153294065.1.2.3,Phases=3,Linecode=CABA08_3_3,Length=0.036070000,Units=km
new line.TR11553963 bus1=BMT153294065.1.2.3,bus2=BMT1236964C.1.2.3,Phases=3,Linecode=CABA08_3_3,Length=0.036410000,Units=km
new line.TR11553977 bus1=BMT1236929C.1.2.3,bus2=BMT1236915C.1.2.3,Phases=3,Linecode=CABA08_3_3,Length=0.036030000,Units=km
new line.TR11553984 bus1=BMT1236915C.1.2.3,bus2=BMT1236922C.1.2.3,Phases=3,Linecode=CABA08_3_3,Length=0.032030000,Units=km
new line.TR11553991 bus1=BMT1236922C.1.2.3,bus2=BMT1236943C.1.2.3,Phases=3,Linecode=CABA08_3_3,Length=0.035180000,Units=km
new line.TR11553998 bus1=BMT1236943C.1.2.3,bus2=BMT1236950C.1.2.3,Phases=3,Linecode=CABA08_3_3,Length=0.035130000,Units=km
new line.TR11554012 bus1=BMT1236901B.1.2.3,bus2=BMT105693177.1.2.3,Phases=3,Linecode=CABA08_3_3,Length=0.024050000,Units=km
new line.TR11554019 bus1=BMT105693177.1.2.3,bus2=BMT1236936C.1.2.3,Phases=3,Linecode=CABA08_3_3,Length=0.030610000,Units=km
new line.TR11554026 bus1=BMT1236936C.1.2.3,bus2=BMT1236929C.1.2.3,Phases=3,Linecode=CABA08_3_3,Length=0.035030000,Units=km
new line.TR11554033 bus1=BMT170041448.1.2.3,bus2=BMT7761623B.1.2.3,Phases=3,Linecode=CABA08_3_3,Length=0.016560000,Units=km
new line.TR11554040 bus1=BMT7761623B.1.2.3,bus2=BMT7761644B.1.2.3,Phases=3,Linecode=CABA08_3_3,Length=0.027900000,Units=km
new line.TR11554047 bus1=BMT7761644B.1.2.3,bus2=BMT7761637B.1.2.3,Phases=3,Linecode=CABA08_3_3,Length=0.026010000,Units=km
new line.TR11554054 bus1=BMT7761637B.1.2.3,bus2=BMT7761651B.1.2.3,Phases=3,Linecode=CABA08_3_3,Length=0.033750000,Units=km
new line.TR11554061 bus1=BMT7761651B.1.2.3,bus2=BMT170041449.1.2.3,Phases=3,Linecode=CABA08_3_3,Length=0.030420000,Units=km
new line.TR11554089 bus1=BMT1235809B.1.2.3,bus2=BMT153294064.1.2.3,Phases=3,Linecode=CAB108_3_3,Length=0.024360000,Units=km
new line.TR11554096 bus1=BMT153294064.1.2.3,bus2=BMT1236901B.1.2.3,Phases=3,Linecode=CABA08_3_3,Length=0.021220000,Units=km
new line.TR11556658 bus1=BMT102965151.1.2.3,bus2=BMT102963387.1.2.3,Phases=3,Linecode=CAB107_3_3,Length=0.054220000,Units=km
new line.TR11563259 bus1=BMT169104657.1.2.3,bus2=BMT166628743.1.2.3,Phases=3,Linecode=CABA08_3_3,Length=0.018030000,Units=km
new line.TR11563630 bus1=BMT2520778B.1.2.3,bus2=BMT2520778C.1.2.3,Phases=3,Linecode=CABA08_3_3,Length=0.000500000,Units=km
new line.TR11563658 bus1=BMT169103817.1.2.3,bus2=BMT7769036B.1.2.3,Phases=3,Linecode=CABA08_3_3,Length=0.010000000,Units=km
new line.TR11563840 bus1=BMT7769092B.1.2.3,bus2=BMT4056445B.1.2.3,Phases=3,Linecode=CABA08_3_3,Length=0.015820000,Units=km
new line.TR11960222 bus1=BMT166942726.1.2.3,bus2=BMT2870904B.1.2.3,Phases=3,Linecode=CAB202_3_3,Length=0.104520000,Units=km
new line.TR11960250 bus1=BMT163904135.1.2.3,bus2=BMT163904136.1.2.3,Phases=3,Linecode=CAB204_3_3,Length=0.242870000,Units=km
new line.TR11960271 bus1=BMT163904136.1.2.3,bus2=BMT8102390B.1.2.3,Phases=3,Linecode=CAB104_3_3,Length=0.062630000,Units=km
new line.TR11960285 bus1=BMT8102390B.1.2.3,bus2=BMT8102397B.1.2.3,Phases=3,Linecode=CAB104_3_3,Length=0.075620000,Units=km
new line.TR11960292 bus1=BMT8102397B.1.2.3,bus2=BMT132198103.1.2.3,Phases=3,Linecode=CAB104_3_3,Length=0.106440000,Units=km
new line.TR11960327 bus1=BMT132198103.1.2.3,bus2=BMT8102495B.1.2.3,Phases=3,Linecode=CAB104_3_3,Length=0.064780000,Units=km
new line.TR11960348 bus1=BMT8102495B.1.2.3,bus2=BMT163904137.1.2.3,Phases=3,Linecode=CAB104_3_3,Length=0.064960000,Units=km
new line.TR11960782 bus1=BMT2492309B.1.2.3,bus2=BMT132222176.1.2.3,Phases=3,Linecode=CAB207_3_3,Length=0.171550000,Units=km
new line.TR11960796 bus1=BMT132222176.1.2.3,bus2=BMT8102845B.1.2.3,Phases=3,Linecode=CAB207_3_3,Length=0.036140000,Units=km
new line.TR11960803 bus1=BMT8102845B.1.2.3,bus2=BMT166918530.1.2.3,Phases=3,Linecode=CAB207_3_3,Length=0.344510000,Units=km
new line.TR11960817 bus1=BMT163903965.1.2.3,bus2=BMT8102327B.1.2.3,Phases=3,Linecode=CAB103_3_3,Length=0.026920000,Units=km
new line.TR11960824 bus1=BMT8102327B.1.2.3,bus2=BMT8102320B.1.2.3,Phases=3,Linecode=CAB103_3_3,Length=0.034670000,Units=km
new line.TR11960866 bus1=BMT8102320B.1.2.3,bus2=BMT163903966.1.2.3,Phases=3,Linecode=CAB103_3_3,Length=0.037550000,Units=km
new line.TR11960887 bus1=BMT163903966.1.2.3,bus2=BMT8102285B.1.2.3,Phases=3,Linecode=CAB202_3_3,Length=0.091330000,Units=km
new line.TR11960901 bus1=BMT8102285B.1.2.3,bus2=BMT8102278B.1.2.3,Phases=3,Linecode=CAB202_3_3,Length=0.166690000,Units=km
new line.TR11960957 bus1=BMT8102278B.1.2.3,bus2=BMT8102271B.1.2.3,Phases=3,Linecode=CAB202_3_3,Length=0.102490000,Units=km
new line.TR11960999 bus1=BMT8102271B.1.2.3,bus2=BMT8102250B.1.2.3,Phases=3,Linecode=CAB202_3_3,Length=0.074710000,Units=km
new line.TR11961027 bus1=BMT8102250B.1.2.3,bus2=BMT8102201B.1.2.3,Phases=3,Linecode=CAB202_3_3,Length=0.099760000,Units=km
new line.TR11961111 bus1=BMT8102201B.1.2.3,bus2=BMT163903967.1.2.3,Phases=3,Linecode=CAB202_3_3,Length=0.112750000,Units=km
new line.TR11961118 bus1=BMT163903967.1.2.3,bus2=BMT8102180B.1.2.3,Phases=3,Linecode=CAB103_3_3,Length=0.068030000,Units=km
new line.TR11961125 bus1=BMT8102180B.1.2.3,bus2=BMT163903968.1.2.3,Phases=3,Linecode=CAB103_3_3,Length=0.048030000,Units=km
new line.TR11961153 bus1=BMT163903967.1.2.3,bus2=BMT8102670B.1.2.3,Phases=3,Linecode=CAB103_3_3,Length=0.064150000,Units=km
new line.TR11961160 bus1=BMT8102670B.1.2.3,bus2=BMT163903969.1.2.3,Phases=3,Linecode=CAB103_3_3,Length=0.059330000,Units=km
new line.TR12244768 bus1=BMT169001188.1.2.3,bus2=BMT4138877B.1.2.3,Phases=3,Linecode=CABA06_3_3,Length=0.044740000,Units=km
new line.TR12244772 bus1=BMT4138877B.1.2.3,bus2=BMT8846341B.1.2.3,Phases=3,Linecode=CABA06_3_3,Length=0.039370000,Units=km
new line.TR12244775 bus1=BMT8846341B.1.2.3,bus2=BMT169001201.1.2.3,Phases=3,Linecode=CABA06_3_3,Length=0.041200000,Units=km
new line.TR11535742 bus1=BMT163040192.1.2.3,bus2=BMT7745964C.1.2.3,Phases=3,Linecode=CABA08_3_3,Length=0.027030000,Units=km
new line.TR11535749 bus1=BMT7745964C.1.2.3,bus2=BMT3169412C.1.2.3,Phases=3,Linecode=CABA08_3_3,Length=0.030160000,Units=km
new line.TR11535756 bus1=BMT3169412C.1.2.3,bus2=BMT7745971C.1.2.3,Phases=3,Linecode=CABA08_3_3,Length=0.032030000,Units=km
new line.TR11535763 bus1=BMT7745971C.1.2.3,bus2=BMT3169405C.1.2.3,Phases=3,Linecode=CABA08_3_3,Length=0.028030000,Units=km
new line.TR11535770 bus1=BMT3169405C.1.2.3,bus2=BMT3169398C.1.2.3,Phases=3,Linecode=CABA08_3_3,Length=0.042770000,Units=km
new line.TR11535777 bus1=BMT3169398C.1.2.3,bus2=BMT3169391C.1.2.3,Phases=3,Linecode=CABA08_3_3,Length=0.034220000,Units=km
new line.TR11535784 bus1=BMT3169391C.1.2.3,bus2=BMT7745978C.1.2.3,Phases=3,Linecode=CABA08_3_3,Length=0.034030000,Units=km
new line.TR11535791 bus1=BMT7745978C.1.2.3,bus2=BMT3169384C.1.2.3,Phases=3,Linecode=CABA08_3_3,Length=0.040260000,Units=km
new line.TR11535805 bus1=BMT3169377C.1.2.3,bus2=BMT1236047C.1.2.3,Phases=3,Linecode=CABA08_3_3,Length=0.031630000,Units=km
new line.TR11535812 bus1=BMT1236047C.1.2.3,bus2=BMT163040193.1.2.3,Phases=3,Linecode=CABA08_3_3,Length=0.036630000,Units=km
new line.TR11535833 bus1=BMT163040193.1.2.3,bus2=BMT3552375.1.2.3,Phases=3,Linecode=CABA08_3_3,Length=0.021640000,Units=km
new line.TR11535896 bus1=BMT3169314B.1.2.3,bus2=BMT7745999B.1.2.3,Phases=3,Linecode=CABA08_3_3,Length=0.023350000,Units=km
new line.TR11535903 bus1=BMT7745999B.1.2.3,bus2=BMT3169307B.1.2.3,Phases=3,Linecode=CABA08_3_3,Length=0.024050000,Units=km
new line.TR11729677 bus1=BMT3652965C.1.2.3,bus2=BMT6323543C.1.2.3,Phases=3,Linecode=CABA08_3_3,Length=0.044790000,Units=km
new line.TR11729684 bus1=BMT6323543C.1.2.3,bus2=BMT3652979C.1.2.3,Phases=3,Linecode=CABA08_3_3,Length=0.039410000,Units=km
new line.TR11729691 bus1=BMT3652979C.1.2.3,bus2=BMT6323515C.1.2.3,Phases=3,Linecode=CABA08_3_3,Length=0.039410000,Units=km
new line.TR11729719 bus1=BMT3653014C.1.2.3,bus2=BMT3653028C.1.2.3,Phases=3,Linecode=CABA08_3_3,Length=0.034550000,Units=km
new line.TR11729740 bus1=BMT3653133C.1.2.3,bus2=BMT150726290.1.2.3,Phases=3,Linecode=CABA08_3_3,Length=0.025090000,Units=km
new line.TR11729747 bus1=BMT150726290.1.2.3,bus2=BMT7911535C.1.2.3,Phases=3,Linecode=CABA08_3_3,Length=0.025070000,Units=km
new line.TR11729761 bus1=BMT164853468.1.2.3,bus2=BMT3653070B.1.2.3,Phases=3,Linecode=CAB102_3_3,Length=0.043290000,Units=km
new line.TR11729817 bus1=BMT150726290.1.2.3,bus2=BMT6076821B.1.2.3,Phases=3,Linecode=CAB103_3_3,Length=0.035370000,Units=km
new line.TR11729824 bus1=BMT7911535C.1.2.3,bus2=BMT150726291.1.2.3,Phases=3,Linecode=CABA08_3_3,Length=0.025070000,Units=km
new line.TR11729831 bus1=BMT150726291.1.2.3,bus2=BMT150726295.1.2.3,Phases=3,Linecode=CAB207_3_3,Length=0.025560000,Units=km
new line.TR11730034 bus1=BMT116173570.1.2.3,bus2=BMT116487807.1.2.3,Phases=3,Linecode=CABA08_3_3,Length=0.030420000,Units=km
new line.TR11730293 bus1=BMT3652993C.1.2.3,bus2=BMT7913096C.1.2.3,Phases=3,Linecode=CABA08_3_3,Length=0.038500000,Units=km
new line.TR11730300 bus1=BMT7913096C.1.2.3,bus2=BMT3653000C.1.2.3,Phases=3,Linecode=CABA08_3_3,Length=0.032320000,Units=km
new line.TR11730398 bus1=BMT6323354C.1.2.3,bus2=BMT7913138C.1.2.3,Phases=3,Linecode=CABA08_3_3,Length=0.033030000,Units=km
new line.TR11730405 bus1=BMT7913138C.1.2.3,bus2=BMT6323375C.1.2.3,Phases=3,Linecode=CABA08_3_3,Length=0.033030000,Units=km
new line.TR11730510 bus1=BMT6323375C.1.2.3,bus2=BMT7913194C.1.2.3,Phases=3,Linecode=CABA08_3_3,Length=0.038910000,Units=km
new line.TR11730517 bus1=BMT7913194C.1.2.3,bus2=BMT2492225C.1.2.3,Phases=3,Linecode=CABA08_3_3,Length=0.033540000,Units=km
new line.TR11730818 bus1=BMT2492225C.1.2.3,bus2=BMT7913299C.1.2.3,Phases=3,Linecode=CABA08_3_3,Length=0.030690000,Units=km
new line.TR11730825 bus1=BMT7913299C.1.2.3,bus2=BMT2492232C.1.2.3,Phases=3,Linecode=CABA08_3_3,Length=0.030690000,Units=km
new line.TR11730993 bus1=BMT2492232C.1.2.3,bus2=BMT150719755.1.2.3,Phases=3,Linecode=CABA08_3_3,Length=0.032910000,Units=km
new line.TR11731000 bus1=BMT150726289.1.2.3,bus2=BMT6323578C.1.2.3,Phases=3,Linecode=CABA08_3_3,Length=0.034550000,Units=km
new line.TR11731084 bus1=BMT6323571C.1.2.3,bus2=BMT7913411C.1.2.3,Phases=3,Linecode=CABA08_3_3,Length=0.038640000,Units=km
new line.TR11731091 bus1=BMT7913411C.1.2.3,bus2=BMT3652958C.1.2.3,Phases=3,Linecode=CABA08_3_3,Length=0.038640000,Units=km
...
