CemigDFeeders/SLAT309/SLAT309ChavesMT.dss
new line.CTR152370 bus1=BMT102963443.1.2.3,bus2=BMT164689164.1.2.3,Phases=3,LineCode=tieSwitch,Length=0.001,Units=km,switch=T !numEQ 
new line.CTR152475 bus1=BMT102965655.1.2.3,bus2=BMT102965662.1.2.3,Phases=3,LineCode=tieSwitch,Length=0.001,Units=km,switch=T !numEQ 
new line.CTR163829 bus1=BMT102962918.1.2.3,bus2=BMT150707671.1.2.3,Phases=3,LineCode=tieSwitch,Length=0.001,Units=km,switch=T !numEQ 
new line.CTR261241 bus1=BMT102963051.1.2.3,bus2=BMT102965529.1.2.3,Phases=3,LineCode=tieSwitch,Length=0.001,Units=km,switch=T !numEQ 
new line.CTR279140 bus1=BMT102963996.2,bus2=BMT102964640.2,Phases=1,LineCode=tieSwitch1,Length=0.001,Units=km,switch=T !numEQ 
new line.CTR279294 bus1=BMT102965536.1.2.3,bus2=BMT102965578.1.2.3,Phases=3,LineCode=tieSwitch,Length=0.001,Units=km,switch=T !numEQ 
new line.CTR335028 bus1=BMT153294289.1.2.3,bus2=BMT102962897.1.2.3,Phases=3,LineCode=tieSwitch,Length=0.001,Units=km,switch=T !numEQ 
new line.CTR335098 bus1=BMT132222176.1.2.3,bus2=BMT163903965.1.2.3,Phases=3,LineCode=tieSwitch,Length=0.001,Units=km,switch=T !numEQ 
new line.CTR335112 bus1=BMT102964066.2,bus2=BMT169942349.2,Phases=1,LineCode=tieSwitch1,Length=0.001,Units=km,switch=T !numEQ 
new line.CTR43933 bus1=BMT102964997.1.2.3,bus2=BMT102965032.1.2.3,Phases=3,LineCode=tieSwitch,Length=0.001,Units=km,switch=T !numEQ 
new line.CTR44129 bus1=BMT153294615.1.2.3,bus2=BMT107406161.1.2.3,Phases=3,LineCode=tieSwitch,Length=0.001,Units=km,switch=T !numEQ 
new line.CTR515901 bus1=BMT151239037.3,bus2=BMT161019865.3,Phases=1,LineCode=tieSwitch1,Length=0.001,Units=km,switch=T !numEQ 
new line.CTR707848 bus1=BMT151235381.1.2.3,bus2=BMT151235511.1.2.3,Phases=3,LineCode=tieSwitch,Length=0.001,Units=km,switch=T !numEQ 
new line.CTR708282 bus1=BMT105693177.1.2.3,bus2=BMT170041448.1.2.3,Phases=3,LineCode=tieSwitch,Length=0.001,Units=km,switch=T !numEQ 
new line.CTR847602 bus1=BMT149165620.1.2.3,bus2=BMT149165621.1.2.3,Phases=3,LineCode=tieSwitch,Length=0.001,Units=km,switch=T !numEQ 
new line.CTR894585 bus1=BMT164689172.2,bus2=BMT164689173.2,Phases=1,LineCode=tieSwitch1,Length=0.001,Units=km,switch=T !numEQ 
new line.CTRR31473 bus1=BMT149167549.1.2.3,bus2=BMT149257582.1.2.3,Phases=3,LineCode=tieSwitch,Length=0.001,Units=km,switch=T !numEQ 
new line.CTRR31606 bus1=BMT149944998.1.2.3,bus2=BMT162068671.1.2.3,Phases=3,LineCode=tieSwitch,Length=0.001,Units=km,switch=T !numEQ 
new line.CTR211506 bus1=BMT163694867.1.2.3,bus2=BMT4447927.1.2.3,Phases=3,LineCode=tieSwitch,Length=0.001,Units=km,switch=T !numEQ 
open line.CTR211506 term=1
new line.CTR230602 bus1=BMT163690116.1.2.3,bus2=BMT138267236.1.2.3,Phases=3,LineCode=tieSwitch,Length=0.001,Units=km,switch=T !numEQ 
new line.CTR43877 bus1=BMT102963450.1.2.3,bus2=BMT163694194.1.2.3,Phases=3,LineCode=tieSwitch,Length=0.001,Units=km,switch=T !numEQ 
new line.CTR49309 bus1=BMT168796374.1.2.3,bus2=BMT102965907.1.2.3,Phases=3,LineCode=tieSwitch,Length=0.001,Units=km,switch=T !numEQ 
new line.CTR541605 bus1=BMT102963086.1,bus2=BMT169918622.1,Phases=1,LineCode=tieSwitch1,Length=0.001,Units=km,switch=T !numEQ 
new line.CTR673968 bus1=BMT102963590.1.2.3,bus2=BMT102963702.1.2.3,Phases=3,LineCode=tieSwitch,Length=0.001,Units=km,switch=T !numEQ 
new line.CTR678819 bus1=BMT162068673.1.2.3,bus2=BMT31472849.1.2.3,Phases=3,LineCode=tieSwitch,Length=0.001,Units=km,switch=T !numEQ 
open line.CTR678819 term=1
new line.CTR797742 bus1=BMT112627104.1.2.3,bus2=BMT112628350.1.2.3,Phases=3,LineCode=tieSwitch,Length=0.001,Units=km,switch=T !numEQ 
new line.CTR797749 bus1=BMT112628357.1.2.3,bus2=BMT161913173.1.2.3,Phases=3,LineCode=tieSwitch,Length=0.001,Units=km,switch=T !numEQ 
new line.CTR803097 bus1=BMT116185505.1.2.3,bus2=BMT116907940.1.2.3,Phases=3,LineCode=tieSwitch,Length=0.001,Units=km,switch=T !numEQ 
new line.CTR803342 bus1=BMT116341976.1.2.3,bus2=BMT150719753.1.2.3,Phases=3,LineCode=tieSwitch,Length=0.001,Units=km,switch=T !numEQ 
new line.CTR803860 bus1=BMT116913393.1.2.3,bus2=BMT116915388.1.2.3,Phases=3,LineCode=tieSwitch,Length=0.001,Units=km,switch=T !numEQ 
new line.CTR847346 bus1=BMT149111440.1,bus2=BMT159978240.1,Phases=1,LineCode=tieSwitch1,Length=0.001,Units=km,switch=T !numEQ 
new line.CTRR33693 bus1=BMT153994859.1.2.3,bus2=BMT153994860.1.2.3,Phases=3,LineCode=tieSwitch,Length=0.001,Units=km,switch=T !numEQ 
new line.CTRR3424 bus1=BMT102963408.1.2.3,bus2=BMT163695778.1.2.3,Phases=3,LineCode=tieSwitch,Length=0.001,Units=km,switch=T !numEQ 
new line.CTR148723 bus1=BMT102965550.1.2.3,bus2=BMT102965564.1.2.3,Phases=3,LineCode=tieSwitch,Length=0.001,Units=km,switch=T !numEQ 
new line.CTR167658 bus1=BMT103887961.1.2.3,bus2=BMT163040190.1.2.3,Phases=3,LineCode=tieSwitch,Length=0.001,Units=km,switch=T !numEQ 
new line.CTR512541 bus1=BMT102963268.1.2.3,bus2=BMT163431466.1.2.3,Phases=3,LineCode=tieSwitch,Length=0.001,Units=km,switch=T !numEQ 
new line.CTR694569 bus1=BMT102963849.1.2.3,bus2=BMT102964892.1.2.3,Phases=3,LineCode=tieSwitch,Length=0.001,Units=km,switch=T !numEQ 
new line.CTR696081 bus1=BMT102962841.1.2.3,bus2=BMT102965753.1.2.3,Phases=3,LineCode=tieSwitch,Length=0.001,Units=km,switch=T !numEQ 
new line.CTR905447 bus1=BMT170041450.1.2.3,bus2=BMT168481555.1.2.3,Phases=3,LineCode=tieSwitch,Length=0.001,Units=km,switch=T !numEQ 
open line.CTR905447 term=1
new line.CTR121031 bus1=BMT102962904.1.2.3,bus2=BMT150726811.1.2.3,Phases=3,LineCode=tieSwitch,Length=0.001,Units=km,switch=T !numEQ 
new line.CTR188595 bus1=BMT102964136.1.2.3,bus2=BMT102964150.1.2.3,Phases=3,LineCode=tieSwitch,Length=0.001,Units=km,switch=T !numEQ 
new line.CTR188609 bus1=BMT102964164.2,bus2=BMT102964311.2,Phases=1,LineCode=tieSwitch1,Length=0.001,Units=km,switch=T !numEQ 
new line.CTR196302 bus1=BMT102965389.2,bus2=BMT102965424.2,Phases=1,LineCode=tieSwitch1,Length=0.001,Units=km,switch=T !numEQ 
new line.CTR270922 bus1=BMT149165725.1.2.3,bus2=BMT149167546.1.2.3,Phases=3,LineCode=tieSwitch,Length=0.001,Units=km,switch=T !numEQ 
new line.CTR312572 bus1=BMT129297289.1.2.3,bus2=BMT163694344.1.2.3,Phases=3,LineCode=tieSwitch,Length=0.001,Units=km,switch=T !numEQ 
new line.CTR315617 bus1=BMT102963891.3,bus2=BMT102964794.3,Phases=1,LineCode=tieSwitch1,Length=0.001,Units=km,switch=T !numEQ 
new line.CTR679428 bus1=BMT102964101.1.2.3,bus2=BMT102964108.1.2.3,Phases=3,LineCode=tieSwitch,Length=0.001,Units=km,switch=T !numEQ 
new line.CTR764814 bus1=BMT106943118.1.2.3,bus2=BMT163696007.1.2.3,Phases=3,LineCode=tieSwitch,Length=0.001,Units=km,switch=T !numEQ 
! MANOBRA ABRIR 208259
open line.CTR764814 term=1
new line.CTR764968 bus1=BMT165431054.1.2.3,bus2=BMT164538005.1.2.3,Phases=3,LineCode=tieSwitch,Length=0.001,Units=km,switch=T !numEQ 
new line.CTR767432 bus1=BMT102965928.1.2.3,bus2=BMT102966236.1.2.3,Phases=3,LineCode=tieSwitch,Length=0.001,Units=km,switch=T !numEQ 
new line.CTR768853 bus1=BMT102965151.1.2.3,bus2=BMT102965172.1.2.3,Phases=3,LineCode=tieSwitch,Length=0.001,Units=km,switch=T !numEQ 
new line.CTR769049 bus1=BMT163696009.1.2.3,bus2=BMT102963387.1.2.3,Phases=3,LineCode=tieSwitch,Length=0.001,Units=km,switch=T !numEQ 
! MANOBRA FECHAR 208241
!open line.CTR769049 term=1
new line.CTR860836 bus1=BMT152984135.1.2.3,bus2=BMT163694677.1.2.3,Phases=3,LineCode=tieSwitch,Length=0.001,Units=km,switch=T !numEQ 
new line.CTR8905 bus1=BMT102963625.1.2.3,bus2=BMT102963632.1.2.3,Phases=3,LineCode=tieSwitch,Length=0.001,Units=km,switch=T !numEQ 
new line.CTRR41083 bus1=BMT166628743.1.2.3,bus2=BMT166628799.1.2.3,Phases=3,LineCode=tieSwitch,Length=0.001,Units=km,switch=T !numEQ 
new line.CTR273092 bus1=BMT102963296.1.2.3,bus2=BMT149257453.1.2.3,Phases=3,LineCode=tieSwitch,Length=0.001,Units=km,switch=T !numEQ 
new line.CTR293987 bus1=BMT163040196.1.2.3,bus2=BMT102962722.1.2.3,Phases=3,LineCode=tieSwitch,Length=0.001,Units=km,switch=T !numEQ 
new line.CTR346501 bus1=BMT102962638.1.2.3,bus2=BMT102966278.1.2.3,Phases=3,LineCode=tieSwitch,Length=0.001,Units=km,switch=T !numEQ 
new line.CTR546113 bus1=BMT102964003.1.2.3,bus2=BMT151949165.1.2.3,Phases=3,LineCode=tieSwitch,Length=0.001,Units=km,switch=T !numEQ 
new line.CTR546141 bus1=BMT102964024.1.2.3,bus2=BMT102964059.1.2.3,Phases=3,LineCode=tieSwitch,Length=0.001,Units=km,switch=T !numEQ 
new line.CTR546211 bus1=BMT102964521.1,bus2=BMT149111553.1,Phases=1,LineCode=tieSwitch1,Length=0.001,Units=km,switch=T !numEQ 
new line.CTR597094 bus1=BMT102964815.3,bus2=BMT102964829.3,Phases=1,LineCode=tieSwitch1,Length=0.001,Units=km,switch=T !numEQ 
new line.CTR602484 bus1=BMT102964353.1.2.3,bus2=BMT102964367.1.2.3,Phases=3,LineCode=tieSwitch,Length=0.001,Units=km,switch=T !numEQ 
new line.CTR603072 bus1=BMT102963989.1.2.3,bus2=BMT162786849.1.2.3,Phases=3,LineCode=tieSwitch,Length=0.001,Units=km,switch=T !numEQ 
new line.CTR654613 bus1=BMT102964157.1.2.3,bus2=BMT102964346.1.2.3,Phases=3,LineCode=tieSwitch,Length=0.001,Units=km,switch=T !numEQ 
new line.CTR654662 bus1=BMT102964220.2,bus2=BMT102964276.2,Phases=1,LineCode=tieSwitch1,Length=0.001,Units=km,switch=T !numEQ 
new line.CTR654718 bus1=BMT102963982.1.2.3,bus2=BMT157530642.1.2.3,Phases=3,LineCode=tieSwitch,Length=0.001,Units=km,switch=T !numEQ 
new line.CTR658176 bus1=BMT102966103.1.2.3,bus2=BMT102966173.1.2.3,Phases=3,LineCode=tieSwitch,Length=0.001,Units=km,switch=T !numEQ 
new line.CTR658204 bus1=BMT102965963.1.2.3,bus2=BMT156455478.1.2.3,Phases=3,LineCode=tieSwitch,Length=0.001,Units=km,switch=T !numEQ 
new line.CTR658232 bus1=BMT102965949.1.2.3,bus2=BMT162496642.1.2.3,Phases=3,LineCode=tieSwitch,Length=0.001,Units=km,switch=T !numEQ 
new line.CTR719930 bus1=BMT102964647.2,bus2=BMT166130592.2,Phases=1,LineCode=tieSwitch1,Length=0.001,Units=km,switch=T !numEQ 
new line.CTR783546 bus1=BMT104833969.1.2.3,bus2=BMT153294062.1.2.3,Phases=3,LineCode=tieSwitch,Length=0.001,Units=km,switch=T !numEQ 
new line.CTR787312 bus1=BMT169106976.1.2.3,bus2=BMT169097305.1.2.3,Phases=3,LineCode=tieSwitch,Length=0.001,Units=km,switch=T !numEQ 
open line.CTR787312 term=1
new line.CTR787347 bus1=BMT169098923.1.2.3,bus2=BMT169106974.1.2.3,Phases=3,LineCode=tieSwitch,Length=0.001,Units=km,switch=T !numEQ 
new line.CTR787522 bus1=BMT129083306.1.2.3,bus2=BMT129083327.1.2.3,Phases=3,LineCode=tieSwitch,Length=0.001,Units=km,switch=T !numEQ 
new line.CTR823845 bus1=BMT132198103.1.2.3,bus2=BMT166942726.1.2.3,Phases=3,LineCode=tieSwitch,Length=0.001,Units=km,switch=T !numEQ 
new line.CTR823859 bus1=BMT132200672.2,bus2=BMT132200679.2,Phases=1,LineCode=tieSwitch1,Length=0.001,Units=km,switch=T !numEQ 
new line.CTR907114 bus1=BMT169099031.1.2.3,bus2=BMT169103817.1.2.3,Phases=3,LineCode=tieSwitch,Length=0.001,Units=km,switch=T !numEQ 
new line.CTR907122 bus1=BMT169103819.1.2.3,bus2=BMT169106836.1.2.3,Phases=3,LineCode=tieSwitch,Length=0.001,Units=km,switch=T !numEQ 
new line.CTR907127 bus1=BMT169104630.1.2.3,bus2=BMT169104655.1.2.3,Phases=3,LineCode=tieSwitch,Length=0.001,Units=km,switch=T !numEQ 
new line.CTR907139 bus1=BMT169106838.1.2.3,bus2=BMT169106835.1.2.3,Phases=3,LineCode=tieSwitch,Length=0.001,Units=km,switch=T !numEQ 
open line.CTR907139 term=1
new line.CTR111777 bus1=BMT166918529.1.2.3,bus2=BMT4096779.1.2.3,Phases=3,LineCode=tieSwitch,Length=0.001,Units=km,switch=T !numEQ 
open line.CTR111777 term=1
new line.CTR183443 bus1=BMT166564200.1.2.3,bus2=BMT102965977.1.2.3,Phases=3,LineCode=tieSwitch,Length=0.001,Units=km,switch=T !numEQ 
new line.CTR275983 bus1=BMT102964430.2,bus2=BMT111809728.2,Phases=1,LineCode=tieSwitch1,Length=0.001,Units=km,switch=T !numEQ 
new line.CTR31025 bus1=BMT102965179.1.2.3,bus2=BMT102965186.1.2.3,Phases=3,LineCode=tieSwitch,Length=0.001,Units=km,switch=T !numEQ 
new line.CTR310269 bus1=BMT106949467.1.2.3,bus2=BMT149165720.1.2.3,Phases=3,LineCode=tieSwitch,Length=0.001,Units=km,switch=T !numEQ 
new line.CTR356567 bus1=BMT102963569.3,bus2=BMT102963716.3,Phases=1,LineCode=tieSwitch1,Length=0.001,Units=km,switch=T !numEQ 
new line.CTR499654 bus1=BMT102965879.1.2.3,bus2=BMT102966250.1.2.3,Phases=3,LineCode=tieSwitch,Length=0.001,Units=km,switch=T !numEQ 
new line.CTR626585 bus1=BMT102964710.2,bus2=BMT160337595.2,Phases=1,LineCode=tieSwitch1,Length=0.001,Units=km,switch=T !numEQ 
new line.CTRR34902 bus1=BMT166628284.1.2.3,bus2=BMT166628436.1.2.3,Phases=3,LineCode=tieSwitch,Length=0.001,Units=km,switch=T !numEQ 
new line.CTR226297 bus1=BMT102962708.1.2.3,bus2=BMT168796370.1.2.3,Phases=3,LineCode=tieSwitch,Length=0.001,Units=km,switch=T !numEQ 
new line.CTR226458 bus1=BMT106929608.1.2.3,bus2=BMT102965109.1.2.3,Phases=3,LineCode=tieSwitch,Length=0.001,Units=km,switch=T !numEQ 
new line.CTR226472 bus1=BMT106961493.1.2.3,bus2=BMT163695922.1.2.3,Phases=3,LineCode=tieSwitch,Length=0.001,Units=km,switch=T !numEQ 
new line.CTR226486 bus1=BMT102963128.1,bus2=BMT102963142.1,Phases=1,LineCode=tieSwitch1,Length=0.001,Units=km,switch=T !numEQ 
new line.CTR226577 bus1=BMT162980755.1.2.3,bus2=BMT163694913.1.2.3,Phases=3,LineCode=tieSwitch,Length=0.001,Units=km,switch=T !numEQ 
new line.CTR226661 bus1=BMT102962855.1.2.3,bus2=BMT154627190.1.2.3,Phases=3,LineCode=tieSwitch,Length=0.001,Units=km,switch=T !numEQ 
new line.CTR226836 bus1=BMT150719755.1.2.3,bus2=BMT150726289.1.2.3,Phases=3,LineCode=tieSwitch,Length=0.001,Units=km,switch=T !numEQ 
new line.CTR283606 bus1=BMT102965095.1.2.3,bus2=BMT137859563.1.2.3,Phases=3,LineCode=tieSwitch,Length=0.001,Units=km,switch=T !numEQ 
new line.CTR580896 bus1=BMT116173570.1.2.3,bus2=BMT164853468.1.2.3,Phases=3,LineCode=tieSwitch,Length=0.001,Units=km,switch=T !numEQ 
new line.CTR776826 bus1=BMT129277479.1.2.3,bus2=BMT167511069.1.2.3,Phases=3,LineCode=tieSwitch,Length=0.001,Units=km,switch=T !numEQ 
new line.CTR776833 bus1=BMT102963527.1.2.3,bus2=BMT155361862.1.2.3,Phases=3,LineCode=tieSwitch,Length=0.001,Units=km,switch=T !numEQ 
new line.CTR776896 bus1=BMT129304604.1.2.3,bus2=BMT163694737.1.2.3,Phases=3,LineCode=tieSwitch,Length=0.001,Units=km,switch=T !numEQ 
new line.CTRR39072 bus1=BMT165431964.1.2.3,bus2=BMT165431342.1.2.3,Phases=3,LineCode=tieSwitch,Length=0.001,Units=km,switch=T !numEQ 
open line.CTRR39072 term=1
new line.CTR144845 bus1=BMT102962813.3,bus2=BMT153294394.3,Phases=1,LineCode=tieSwitch1,Length=0.001,Units=km,switch=T !numEQ 
new line.CTR189372 bus1=BMT102966138.1.2.3,bus2=BMT102966159.1.2.3,Phases=3,LineCode=tieSwitch,Length=0.001,Units=km,switch=T !numEQ 
new line.CTR189393 bus1=BMT102966117.1.2.3,bus2=BMT102966131.1.2.3,Phases=3,LineCode=tieSwitch,Length=0.001,Units=km,switch=T !numEQ 
new line.CTR300819 bus1=BMT102963583.1.2.3,bus2=BMT163690113.1.2.3,Phases=3,LineCode=tieSwitch,Length=0.001,Units=km,switch=T !numEQ 
new line.CTR535333 bus1=BMT102963100.1.2.3,bus2=BMT165431051.1.2.3,Phases=3,LineCode=tieSwitch,Length=0.001,Units=km,switch=T !numEQ 
new line.CTR590409 bus1=BMT102965053.1.2.3,bus2=BMT106929587.1.2.3,Phases=3,LineCode=tieSwitch,Length=0.001,Units=km,switch=T !numEQ 
new line.CTR661970 bus1=BMT102962526.1.2.3,bus2=BMT157790064.1.2.3,Phases=3,LineCode=tieSwitch,Length=0.001,Units=km,switch=T !numEQ 
new line.CTR722800 bus1=BMT102965732.1.2.3,bus2=BMT102965739.1.2.3,Phases=3,LineCode=tieSwitch,Length=0.001,Units=km,switch=T !numEQ 
new line.CTR789251 bus1=BMT153294613.1.2.3,bus2=BMT107403977.1.2.3,Phases=3,LineCode=tieSwitch,Length=0.001,Units=km,switch=T !numEQ 
new line.CTR789279 bus1=BMT107407470.1.2.3,bus2=BMT153294614.1.2.3,Phases=3,LineCode=tieSwitch,Length=0.001,Units=km,switch=T !numEQ 
new line.CTR867337 bus1=BMT155361877.1.2.3,bus2=BMT154905396.1.2.3,Phases=3,LineCode=tieSwitch,Length=0.001,Units=km,switch=T !numEQ 
new line.CTR98344 bus1=BMT102964955.1.2.3,bus2=BMT102964962.1.2.3,Phases=3,LineCode=tieSwitch,Length=0.001,Units=km,switch=T !numEQ 
