CemigDFeeders/SLAT309/SLAT309Transformadores.dss
new transformer.1321378 Phases=1,Windings=3,Buses=[BMT163695923.1 BBT94150590.1.0 BBT94150590.0.2],Conns=[wye wye wye],kvs=[7.967 0.12 0.12],kvas=[5.000000000 5.000000000 5.000000000],Taps=[1,1.000000000,1.000000000],%loadloss=1.900000000,%noloadloss=0.600000000
new transformer.1345710 Phases=1,Windings=3,Buses=[BMT155361870.3 BBT112305216.1.0 BBT112305216.0.2],Conns=[wye wye wye],kvs=[7.967 0.12 0.12],kvas=[5.000000000 5.000000000 5.000000000],Taps=[1,1.000000000,1.000000000],%loadloss=1.900000000,%noloadloss=0.600000000
new transformer.144817 Phases=1,Windings=3,Buses=[BMT102964339.2 BBT1232547.1.0 BBT1232547.0.2],Conns=[wye wye wye],kvs=[7.967 0.12 0.12],kvas=[10.000000000 10.000000000 10.000000000],Taps=[1,1.000000000,1.000000000],%loadloss=1.800000000,%noloadloss=0.450000000
new transformer.1489936 Phases=1,Windings=3,Buses=[BMT169918627.1 BBT169918628.1.0 BBT169918628.0.2],Conns=[wye wye wye],kvs=[7.967 0.12 0.12],kvas=[35.000000000 35.000000000 35.000000000],Taps=[1,1.000000000,1.000000000],%loadloss=1.293000000,%noloadloss=0.342857000
new transformer.1490050 Phases=1,Windings=3,Buses=[BMT169942354.2 BBT169941827.1.0 BBT169941827.0.2],Conns=[wye wye wye],kvs=[7.967 0.12 0.12],kvas=[15.000000000 15.000000000 15.000000000],Taps=[1,1.000000000,1.000000000],%loadloss=1.600000000,%noloadloss=0.400000000
new transformer.178914 Phases=1,Windings=3,Buses=[BMT169001181.2 BBT1414393.1.0 BBT1414393.0.2],Conns=[wye wye wye],kvs=[7.967 0.12 0.12],kvas=[35.000000000 35.000000000 35.000000000],Taps=[1,1.000000000,1.000000000],%loadloss=1.293000000,%noloadloss=0.342857000
new transformer.178928 Phases=3,Windings=2,Buses=[BMT169001179.1.2.3 BBT1414491.1.2.3.0],Conns=[delta wye],kvs=[13.8 0.22],kvas=[45.000000000 45.000000000],Taps=[1,1.000000000],%loadloss=1.522000000,%noloadloss=0.377777000
new transformer.178956 Phases=1,Windings=3,Buses=[BMT102964836.3 BBT1414701.1.0 BBT1414701.0.2],Conns=[wye wye wye],kvs=[7.967 0.12 0.12],kvas=[10.000000000 10.000000000 10.000000000],Taps=[1,1.000000000,1.000000000],%loadloss=1.800000000,%noloadloss=0.450000000
new transformer.178970 Phases=1,Windings=3,Buses=[BMT155361875.2 BBT1414785.1.0 BBT1414785.0.2],Conns=[wye wye wye],kvs=[7.967 0.12 0.12],kvas=[10.000000000 10.000000000 10.000000000],Taps=[1,1.000000000,1.000000000],%loadloss=1.800000000,%noloadloss=0.450000000
new transformer.179005 Phases=3,Windings=2,Buses=[BMT151949170.1.2.3 BBT1415072.1.2.3.0],Conns=[delta wye],kvs=[13.8 0.22],kvas=[15.000000000 15.000000000],Taps=[1,1.000000000],%loadloss=1.967000000,%noloadloss=0.500000000
new transformer.179019 Phases=3,Windings=2,Buses=[BMT157530644.1.2.3 BBT1415177.1.2.3.0],Conns=[delta wye],kvs=[13.8 0.22],kvas=[45.000000000 45.000000000],Taps=[1,1.000000000],%loadloss=1.522000000,%noloadloss=0.377777000
new transformer.179040 Phases=1,Windings=3,Buses=[BMT157530646.2 BBT1415282.1.0 BBT1415282.0.2],Conns=[wye wye wye],kvs=[7.967 0.12 0.12],kvas=[15.000000000 15.000000000 15.000000000],Taps=[1,1.000000000,1.000000000],%loadloss=1.600000000,%noloadloss=0.400000000
new transformer.179054 Phases=3,Windings=2,Buses=[BMT102963660.1.2.3 BBT1415443.1.2.3.0],Conns=[delta wye],kvs=[13.8 0.22],kvas=[75.000000000 75.000000000],Taps=[1,1.000000000],%loadloss=1.340000000,%noloadloss=0.340000000
new transformer.179068 Phases=3,Windings=2,Buses=[BMT169001183.1.2.3 BBT1415492.1.2.3.0],Conns=[delta wye],kvs=[13.8 0.22],kvas=[30.000000000 30.000000000],Taps=[1,1.000000000],%loadloss=1.667000000,%noloadloss=0.433333000
new transformer.179082 Phases=1,Windings=3,Buses=[BMT102964801.3 BBT1415646.1.0 BBT1415646.0.2],Conns=[wye wye wye],kvs=[7.967 0.12 0.12],kvas=[35.000000000 35.000000000 35.000000000],Taps=[1,1.000000000,1.000000000],%loadloss=1.293000000,%noloadloss=0.342857000
new transformer.179110 Phases=1,Windings=3,Buses=[BMT169001197.1 BBT1415933.1.0 BBT1415933.0.2],Conns=[wye wye wye],kvs=[7.967 0.12 0.12],kvas=[15.000000000 15.000000000 15.000000000],Taps=[1,1.000000000,1.000000000],%loadloss=1.600000000,%noloadloss=0.400000000
new transformer.179124 Phases=1,Windings=3,Buses=[BMT160337597.2 BBT1415989.1.0 BBT1415989.0.2],Conns=[wye wye wye],kvs=[7.967 0.12 0.12],kvas=[15.000000000 15.000000000 15.000000000],Taps=[1,1.000000000,1.000000000],%loadloss=1.600000000,%noloadloss=0.400000000
new transformer.179138 Phases=1,Windings=3,Buses=[BMT102964654.2 BBT1416129.1.0 BBT1416129.0.2],Conns=[wye wye wye],kvs=[7.967 0.12 0.12],kvas=[15.000000000 15.000000000 15.000000000],Taps=[1,1.000000000,1.000000000],%loadloss=1.600000000,%noloadloss=0.400000000
new transformer.179152 Phases=3,Windings=2,Buses=[BMT162786851.1.2.3 BBT1416178.1.2.3.0],Conns=[delta wye],kvs=[13.8 0.22],kvas=[30.000000000 30.000000000],Taps=[1,1.000000000],%loadloss=1.667000000,%noloadloss=0.433333000
new transformer.179166 Phases=1,Windings=3,Buses=[BMT151949171.1 BBT1416318.1.0 BBT1416318.0.2],Conns=[wye wye wye],kvs=[7.967 0.12 0.12],kvas=[35.000000000 35.000000000 35.000000000],Taps=[1,1.000000000,1.000000000],%loadloss=1.293000000,%noloadloss=0.342857000
new transformer.179180 Phases=1,Windings=3,Buses=[BMT162786853.2 BBT1416346.1.0 BBT1416346.0.2],Conns=[wye wye wye],kvs=[7.967 0.12 0.12],kvas=[15.000000000 15.000000000 15.000000000],Taps=[1,1.000000000,1.000000000],%loadloss=1.600000000,%noloadloss=0.400000000
new transformer.179222 Phases=1,Windings=3,Buses=[BMT162786854.2 BBT1416731.1.0 BBT1416731.0.2],Conns=[wye wye wye],kvs=[7.967 0.12 0.12],kvas=[15.000000000 15.000000000 15.000000000],Taps=[1,1.000000000,1.000000000],%loadloss=1.600000000,%noloadloss=0.400000000
new transformer.179236 Phases=1,Windings=3,Buses=[BMT169001195.2 BBT1416815.1.0 BBT1416815.0.2],Conns=[wye wye wye],kvs=[7.967 0.12 0.12],kvas=[10.000000000 10.000000000 10.000000000],Taps=[1,1.000000000,1.000000000],%loadloss=1.800000000,%noloadloss=0.450000000
new transformer.179250 Phases=1,Windings=3,Buses=[BMT169001193.1 BBT1416878.1.0 BBT1416878.0.2],Conns=[wye wye wye],kvs=[7.967 0.12 0.12],kvas=[10.000000000 10.000000000 10.000000000],Taps=[1,1.000000000,1.000000000],%loadloss=1.800000000,%noloadloss=0.450000000
new transformer.1156591 Phases=1,Windings=3,Buses=[BMT151949169.1 BBT36039537.1.0 BBT36039537.0.2],Conns=[wye wye wye],kvs=[7.967 0.12 0.12],kvas=[5.000000000 5.000000000 5.000000000],Taps=[1,1.000000000,1.000000000],%loadloss=1.900000000,%noloadloss=0.600000000
new transformer.1201965 Phases=3,Windings=2,Buses=[BMT102966145.1.2.3 BBT42459398.1.2.3.0],Conns=[delta wye],kvs=[13.8 0.22],kvas=[75.000000000 75.000000000],Taps=[1,1.000000000],%loadloss=1.340000000,%noloadloss=0.340000000
new transformer.1342917 Phases=3,Windings=2,Buses=[BMT164689167.1.2.3 BBT110178168.1.2.3.0],Conns=[delta wye],kvs=[13.8 0.22],kvas=[45.000000000 45.000000000],Taps=[1,1.000000000],%loadloss=1.522000000,%noloadloss=0.377777000
new transformer.1368250 Phases=3,Windings=2,Buses=[BMT129933995.1.2.3 BBT129930159.1.2.3.0],Conns=[delta wye],kvs=[13.8 0.22],kvas=[30.000000000 30.000000000],Taps=[1,1.000000000],%loadloss=1.667000000,%noloadloss=0.433333000
new transformer.1368397 Phases=3,Windings=2,Buses=[BMT163040192.1.2.3 BBT129997919.1.2.3.0],Conns=[delta wye],kvs=[13.8 0.22],kvas=[30.000000000 30.000000000],Taps=[1,1.000000000],%loadloss=1.667000000,%noloadloss=0.433333000
new transformer.1390323 Phases=3,Windings=2,Buses=[BMT166942729.1.2.3 BBT148086678.1.2.3.0],Conns=[delta wye],kvs=[13.8 0.22],kvas=[75.000000000 75.000000000],Taps=[1,1.000000000],%loadloss=1.340000000,%noloadloss=0.340000000
new transformer.1410400 Phases=3,Windings=2,Buses=[BMT169001201.1.2.3 BBT152926569.1.2.3.0],Conns=[delta wye],kvs=[13.8 0.22],kvas=[45.000000000 45.000000000],Taps=[1,1.000000000],%loadloss=1.522000000,%noloadloss=0.377777000
new transformer.1419323 Phases=3,Windings=2,Buses=[BMT169001174.1.2.3 BBT154901416.1.2.3.0],Conns=[delta wye],kvs=[13.8 0.22],kvas=[75.000000000 75.000000000],Taps=[1,1.000000000],%loadloss=1.340000000,%noloadloss=0.340000000
new transformer.1419326 Phases=3,Windings=2,Buses=[BMT169001170.1.2.3 BBT154901918.1.2.3.0],Conns=[delta wye],kvs=[13.8 0.22],kvas=[75.000000000 75.000000000],Taps=[1,1.000000000],%loadloss=1.340000000,%noloadloss=0.340000000
new transformer.1419327 Phases=3,Windings=2,Buses=[BMT169001182.1.2.3 BBT154902857.1.2.3.0],Conns=[delta wye],kvs=[13.8 0.22],kvas=[75.000000000 75.000000000],Taps=[1,1.000000000],%loadloss=1.340000000,%noloadloss=0.340000000
new transformer.1419341 Phases=3,Windings=2,Buses=[BMT169001171.1.2.3 BBT154906919.1.2.3.0],Conns=[delta wye],kvs=[13.8 0.22],kvas=[75.000000000 75.000000000],Taps=[1,1.000000000],%loadloss=1.340000000,%noloadloss=0.340000000
new transformer.1424829 Phases=3,Windings=2,Buses=[BMT157530647.1.2.3 BBT156067102.1.2.3.0],Conns=[delta wye],kvs=[13.8 0.22],kvas=[45.000000000 45.000000000],Taps=[1,1.000000000],%loadloss=1.522000000,%noloadloss=0.377777000
new transformer.1424832 Phases=3,Windings=2,Buses=[BMT157530648.1.2.3 BBT156067351.1.2.3.0],Conns=[delta wye],kvs=[13.8 0.22],kvas=[45.000000000 45.000000000],Taps=[1,1.000000000],%loadloss=1.522000000,%noloadloss=0.377777000
new transformer.1430847 Phases=1,Windings=3,Buses=[BMT169104658.2 BBT157395447.1.0 BBT157395447.0.2],Conns=[wye wye wye],kvs=[7.967 0.12 0.12],kvas=[10.000000000 10.000000000 10.000000000],Taps=[1,1.000000000,1.000000000],%loadloss=1.800000000,%noloadloss=0.450000000
new transformer.144600 Phases=3,Windings=2,Buses=[BMT102964416.1.2.3 BBT1231819.1.2.3.0],Conns=[delta wye],kvs=[13.8 0.22],kvas=[30.000000000 30.000000000],Taps=[1,1.000000000],%loadloss=1.667000000,%noloadloss=0.433333000
new transformer.145104 Phases=3,Windings=2,Buses=[BMT102964262.1.2.3 BBT1233863.1.2.3.0],Conns=[delta wye],kvs=[13.8 0.22],kvas=[75.000000000 75.000000000],Taps=[1,1.000000000],%loadloss=1.340000000,%noloadloss=0.340000000
new transformer.145146 Phases=1,Windings=3,Buses=[BMT102964395.2 BBT1234157.1.0 BBT1234157.0.2],Conns=[wye wye wye],kvs=[7.967 0.12 0.12],kvas=[10.000000000 10.000000000 10.000000000],Taps=[1,1.000000000,1.000000000],%loadloss=1.800000000,%noloadloss=0.450000000
new transformer.180888 Phases=3,Windings=2,Buses=[BMT163694739.1.2.3 BBT1429177.1.2.3.0],Conns=[delta wye],kvs=[13.8 0.22],kvas=[15.000000000 15.000000000],Taps=[1,1.000000000],%loadloss=1.967000000,%noloadloss=0.500000000
new transformer.180923 Phases=1,Windings=3,Buses=[BMT167511074.3 BBT1429331.1.0 BBT1429331.0.2],Conns=[wye wye wye],kvs=[7.967 0.12 0.12],kvas=[10.000000000 10.000000000 10.000000000],Taps=[1,1.000000000,1.000000000],%loadloss=1.800000000,%noloadloss=0.450000000
new transformer.181021 Phases=3,Windings=2,Buses=[BMT163903968.1.2.3 BBT1430094.1.2.3.0],Conns=[delta wye],kvs=[13.8 0.22],kvas=[75.000000000 75.000000000],Taps=[1,1.000000000],%loadloss=1.340000000,%noloadloss=0.340000000
new transformer.181042 Phases=1,Windings=3,Buses=[BMT155361864.2 BBT1430248.1.0 BBT1430248.0.2],Conns=[wye wye wye],kvs=[7.967 0.12 0.12],kvas=[15.000000000 15.000000000 15.000000000],Taps=[1,1.000000000,1.000000000],%loadloss=1.600000000,%noloadloss=0.400000000
new transformer.181091 Phases=3,Windings=2,Buses=[BMT163695783.1.2.3 BBT1430654.1.2.3.0],Conns=[delta wye],kvs=[13.8 0.22],kvas=[45.000000000 45.000000000],Taps=[1,1.000000000],%loadloss=1.522000000,%noloadloss=0.377777000
new transformer.1084036 Phases=1,Windings=3,Buses=[BMT149111558.1 BBT19307787.1.0 BBT19307787.0.2],Conns=[wye wye wye],kvs=[7.967 0.12 0.12],kvas=[15.000000000 15.000000000 15.000000000],Taps=[1,1.000000000,1.000000000],%loadloss=1.600000000,%noloadloss=0.400000000
new transformer.1084050 Phases=1,Windings=3,Buses=[BMT149111556.1 BBT19307976.1.0 BBT19307976.0.2],Conns=[wye wye wye],kvs=[7.967 0.12 0.12],kvas=[15.000000000 15.000000000 15.000000000],Taps=[1,1.000000000,1.000000000],%loadloss=1.600000000,%noloadloss=0.400000000
new transformer.1158313 Phases=1,Windings=3,Buses=[BMT159978241.1 BBT35409642.1.0 BBT35409642.0.2],Conns=[wye wye wye],kvs=[7.967 0.12 0.12],kvas=[5.000000000 5.000000000 5.000000000],Taps=[1,1.000000000,1.000000000],%loadloss=1.900000000,%noloadloss=0.600000000
new transformer.1158474 Phases=1,Windings=3,Buses=[BMT149111559.1 BBT35425329.1.0 BBT35425329.0.2],Conns=[wye wye wye],kvs=[7.967 0.12 0.12],kvas=[5.000000000 5.000000000 5.000000000],Taps=[1,1.000000000,1.000000000],%loadloss=1.900000000,%noloadloss=0.600000000
new transformer.1205948 Phases=1,Windings=3,Buses=[BMT151235514.3 BBT56411973.1.0 BBT56411973.0.2],Conns=[wye wye wye],kvs=[7.967 0.12 0.12],kvas=[15.000000000 15.000000000 15.000000000],Taps=[1,1.000000000,1.000000000],%loadloss=1.600000000,%noloadloss=0.400000000
new transformer.144957 Phases=1,Windings=3,Buses=[BMT102964297.2 BBT1233317.1.0 BBT1233317.0.2],Conns=[wye wye wye],kvs=[7.967 0.12 0.12],kvas=[15.000000000 15.000000000 15.000000000],Taps=[1,1.000000000,1.000000000],%loadloss=1.600000000,%noloadloss=0.400000000
new transformer.144999 Phases=3,Windings=2,Buses=[BMT102964360.1.2.3 BBT1233471.1.2.3.0],Conns=[delta wye],kvs=[13.8 0.22],kvas=[30.000000000 30.000000000],Taps=[1,1.000000000],%loadloss=1.667000000,%noloadloss=0.433333000
new transformer.145006 Phases=3,Windings=2,Buses=[BMT102964409.1.2.3 BBT1233485.1.2.3.0],Conns=[delta wye],kvs=[13.8 0.22],kvas=[75.000000000 75.000000000],Taps=[1,1.000000000],%loadloss=1.340000000,%noloadloss=0.340000000
new transformer.1455915 Phases=1,Windings=3,Buses=[BMT164689174.2 BBT163361534.1.0 BBT163361534.0.2],Conns=[wye wye wye],kvs=[7.967 0.12 0.12],kvas=[10.000000000 10.000000000 10.000000000],Taps=[1,1.000000000,1.000000000],%loadloss=1.800000000,%noloadloss=0.450000000
new transformer.1461061 Phases=1,Windings=3,Buses=[BMT166130593.2 BBT164921311.1.0 BBT164921311.0.2],Conns=[wye wye wye],kvs=[7.967 0.12 0.12],kvas=[10.000000000 10.000000000 10.000000000],Taps=[1,1.000000000,1.000000000],%loadloss=1.800000000,%noloadloss=0.450000000
new transformer.180335 Phases=1,Windings=3,Buses=[BMT164689169.1 BBT1424655.1.0 BBT1424655.0.2],Conns=[wye wye wye],kvs=[7.967 0.12 0.12],kvas=[5.000000000 5.000000000 5.000000000],Taps=[1,1.000000000,1.000000000],%loadloss=1.900000000,%noloadloss=0.600000000
new transformer.180349 Phases=3,Windings=2,Buses=[BMT164689171.1.2.3 BBT1424711.1.2.3.0],Conns=[delta wye],kvs=[13.8 0.22],kvas=[30.000000000 30.000000000],Taps=[1,1.000000000],%loadloss=1.667000000,%noloadloss=0.433333000
new transformer.180419 Phases=3,Windings=2,Buses=[BMT164689166.1.2.3 BBT1425383.1.2.3.0],Conns=[delta wye],kvs=[13.8 0.22],kvas=[30.000000000 30.000000000],Taps=[1,1.000000000],%loadloss=1.667000000,%noloadloss=0.433333000
new transformer.180433 Phases=3,Windings=2,Buses=[BMT102965046.1.2.3 BBT1425411.1.2.3.0],Conns=[delta wye],kvs=[13.8 0.22],kvas=[75.000000000 75.000000000],Taps=[1,1.000000000],%loadloss=1.340000000,%noloadloss=0.340000000
new transformer.180475 Phases=3,Windings=2,Buses=[BMT102965039.1.2.3 BBT1425838.1.2.3.0],Conns=[delta wye],kvs=[13.8 0.22],kvas=[45.000000000 45.000000000],Taps=[1,1.000000000],%loadloss=1.522000000,%noloadloss=0.377777000
new transformer.180650 Phases=1,Windings=3,Buses=[BMT163904134.1 BBT1427357.1.0 BBT1427357.0.2],Conns=[wye wye wye],kvs=[7.967 0.12 0.12],kvas=[35.000000000 35.000000000 35.000000000],Taps=[1,1.000000000,1.000000000],%loadloss=1.293000000,%noloadloss=0.342857000
new transformer.184724 Phases=3,Windings=2,Buses=[BMT162496655.1.2.3 BBT1457422.1.2.3.0],Conns=[delta wye],kvs=[13.8 0.22],kvas=[30.000000000 30.000000000],Taps=[1,1.000000000],%loadloss=1.667000000,%noloadloss=0.433333000
new transformer.184745 Phases=3,Windings=2,Buses=[BMT162496645.1.2.3 BBT1457646.1.2.3.0],Conns=[delta wye],kvs=[13.8 0.22],kvas=[30.000000000 30.000000000],Taps=[1,1.000000000],%loadloss=1.667000000,%noloadloss=0.433333000
new transformer.184787 Phases=3,Windings=2,Buses=[BMT162496646.1.2.3 BBT1457996.1.2.3.0],Conns=[delta wye],kvs=[13.8 0.22],kvas=[30.000000000 30.000000000],Taps=[1,1.000000000],%loadloss=1.667000000,%noloadloss=0.433333000
new transformer.184885 Phases=3,Windings=2,Buses=[BMT156455480.1.2.3 BBT1458934.1.2.3.0],Conns=[delta wye],kvs=[13.8 0.22],kvas=[75.000000000 75.000000000],Taps=[1,1.000000000],%loadloss=1.340000000,%noloadloss=0.340000000
new transformer.184941 Phases=3,Windings=2,Buses=[BMT166564197.1.2.3 BBT1459403.1.2.3.0],Conns=[delta wye],kvs=[13.8 0.22],kvas=[100.000000000 100.000000000],Taps=[1,1.000000000],%loadloss=1.218000000,%noloadloss=0.335000000
new transformer.1415376 Phases=1,Windings=3,Buses=[BMT163694915.2 BBT153979606.1.0 BBT153979606.0.2],Conns=[wye wye wye],kvs=[7.967 0.12 0.12],kvas=[10.000000000 10.000000000 10.000000000],Taps=[1,1.000000000,1.000000000],%loadloss=1.800000000,%noloadloss=0.450000000
new transformer.144642 Phases=1,Windings=3,Buses=[BMT102964332.2 BBT1231903.1.0 BBT1231903.0.2],Conns=[wye wye wye],kvs=[7.967 0.12 0.12],kvas=[10.000000000 10.000000000 10.000000000],Taps=[1,1.000000000,1.000000000],%loadloss=1.800000000,%noloadloss=0.450000000
new transformer.145027 Phases=3,Windings=2,Buses=[BMT102964241.1.2.3 BBT1233527.1.2.3.0],Conns=[delta wye],kvs=[13.8 0.22],kvas=[150.000000000 150.000000000],Taps=[1,1.000000000],%loadloss=1.127000000,%noloadloss=0.280000000
new transformer.145083 Phases=3,Windings=2,Buses=[BMT102964381.1.2.3 BBT1233821.1.2.3.0],Conns=[delta wye],kvs=[13.8 0.22],kvas=[45.000000000 45.000000000],Taps=[1,1.000000000],%loadloss=1.522000000,%noloadloss=0.377777000
new transformer.1476454 Phases=3,Windings=2,Buses=[BMT167511073.1.2.3 BBT167511003.1.2.3.0],Conns=[delta wye],kvs=[13.8 0.22],kvas=[75.000000000 75.000000000],Taps=[1,1.000000000],%loadloss=1.340000000,%noloadloss=0.340000000
new transformer.181539 Phases=3,Windings=2,Buses=[BMT150726815.1.2.3 BBT1433664.1.2.3.0],Conns=[delta wye],kvs=[13.8 0.22],kvas=[30.000000000 30.000000000],Taps=[1,1.000000000],%loadloss=1.667000000,%noloadloss=0.433333000
new transformer.181581 Phases=1,Windings=3,Buses=[BMT166942732.2 BBT1434119.1.0 BBT1434119.0.2],Conns=[wye wye wye],kvs=[7.967 0.12 0.12],kvas=[10.000000000 10.000000000 10.000000000],Taps=[1,1.000000000,1.000000000],%loadloss=1.800000000,%noloadloss=0.450000000
new transformer.181679 Phases=3,Windings=2,Buses=[BMT150726814.1.2.3 BBT1434707.1.2.3.0],Conns=[delta wye],kvs=[13.8 0.22],kvas=[45.000000000 45.000000000],Taps=[1,1.000000000],%loadloss=1.522000000,%noloadloss=0.377777000
new transformer.181707 Phases=3,Windings=2,Buses=[BMT166918526.1.2.3 BBT1435022.1.2.3.0],Conns=[delta wye],kvs=[13.8 0.22],kvas=[15.000000000 15.000000000],Taps=[1,1.000000000],%loadloss=1.967000000,%noloadloss=0.500000000
new transformer.181798 Phases=1,Windings=3,Buses=[BMT132200707.2 BBT1435687.1.0 BBT1435687.0.2],Conns=[wye wye wye],kvs=[7.967 0.12 0.12],kvas=[15.000000000 15.000000000 15.000000000],Taps=[1,1.000000000,1.000000000],%loadloss=1.600000000,%noloadloss=0.400000000
new transformer.181812 Phases=1,Windings=3,Buses=[BMT102965494.2 BBT1435806.1.0 BBT1435806.0.2],Conns=[wye wye wye],kvs=[7.967 0.12 0.12],kvas=[10.000000000 10.000000000 10.000000000],Taps=[1,1.000000000,1.000000000],%loadloss=1.800000000,%noloadloss=0.450000000
new transformer.181833 Phases=1,Windings=3,Buses=[BMT102963170.1 BBT1435848.1.0 BBT1435848.0.2],Conns=[wye wye wye],kvs=[7.967 0.12 0.12],kvas=[10.000000000 10.000000000 10.000000000],Taps=[1,1.000000000,1.000000000],%loadloss=1.800000000,%noloadloss=0.450000000
new transformer.181861 Phases=1,Windings=3,Buses=[BMT102965487.2 BBT1436065.1.0 BBT1436065.0.2],Conns=[wye wye wye],kvs=[7.967 0.12 0.12],kvas=[10.000000000 10.000000000 10.000000000],Taps=[1,1.000000000,1.000000000],%loadloss=1.800000000,%noloadloss=0.450000000
new transformer.181882 Phases=1,Windings=3,Buses=[BMT102965473.2 BBT1436240.1.0 BBT1436240.0.2],Conns=[wye wye wye],kvs=[7.967 0.12 0.12],kvas=[10.000000000 10.000000000 10.000000000],Taps=[1,1.000000000,1.000000000],%loadloss=1.800000000,%noloadloss=0.450000000
new transformer.181896 Phases=3,Windings=2,Buses=[BMT166942730.1.2.3 BBT1436359.1.2.3.0],Conns=[delta wye],kvs=[13.8 0.22],kvas=[30.000000000 30.000000000],Taps=[1,1.000000000],%loadloss=1.667000000,%noloadloss=0.433333000
new transformer.181910 Phases=1,Windings=3,Buses=[BMT161019867.3 BBT1436436.1.0 BBT1436436.0.2],Conns=[wye wye wye],kvs=[7.967 0.12 0.12],kvas=[35.000000000 35.000000000 35.000000000],Taps=[1,1.000000000,1.000000000],%loadloss=1.293000000,%noloadloss=0.342857000
new transformer.181987 Phases=1,Windings=3,Buses=[BMT169918624.1 BBT1437199.1.0 BBT1437199.0.2],Conns=[wye wye wye],kvs=[7.967 0.12 0.12],kvas=[10.000000000 10.000000000 10.000000000],Taps=[1,1.000000000,1.000000000],%loadloss=1.800000000,%noloadloss=0.450000000
new transformer.182008 Phases=1,Windings=3,Buses=[BMT169918626.1 BBT1437332.1.0 BBT1437332.0.2],Conns=[wye wye wye],kvs=[7.967 0.12 0.12],kvas=[15.000000000 15.000000000 15.000000000],Taps=[1,1.000000000,1.000000000],%loadloss=1.600000000,%noloadloss=0.400000000
new transformer.182071 Phases=3,Windings=2,Buses=[BMT166942733.1.2.3 BBT1437731.1.2.3.0],Conns=[delta wye],kvs=[13.8 0.22],kvas=[30.000000000 30.000000000],Taps=[1,1.000000000],%loadloss=1.667000000,%noloadloss=0.433333000
new transformer.1378211 Phases=1,Windings=3,Buses=[BMT160337598.2 BBT136451359.1.0 BBT136451359.0.2],Conns=[wye wye wye],kvs=[7.967 0.12 0.12],kvas=[15.000000000 15.000000000 15.000000000],Taps=[1,1.000000000,1.000000000],%loadloss=1.600000000,%noloadloss=0.400000000
new transformer.1398433 Phases=1,Windings=3,Buses=[BMT149945012.1 BBT149945003.1.0 BBT149945003.0.2],Conns=[wye wye wye],kvs=[7.967 0.12 0.12],kvas=[10.000000000 10.000000000 10.000000000],Taps=[1,1.000000000,1.000000000],%loadloss=1.800000000,%noloadloss=0.450000000
new transformer.1432360 Phases=3,Windings=2,Buses=[BMT157790070.1.2.3 BBT157683907.1.2.3.0],Conns=[delta wye],kvs=[13.8 0.22],kvas=[45.000000000 45.000000000],Taps=[1,1.000000000],%loadloss=1.522000000,%noloadloss=0.377777000
new transformer.1468192 Phases=1,Windings=3,Buses=[BMT166130596.2 BBT166130602.1.0 BBT166130602.0.2],Conns=[wye wye wye],kvs=[7.967 0.12 0.12],kvas=[10.000000000 10.000000000 10.000000000],Taps=[1,1.000000000,1.000000000],%loadloss=1.800000000,%noloadloss=0.450000000
new transformer.178886 Phases=1,Windings=3,Buses=[BMT169001178.2 BBT1414211.1.0 BBT1414211.0.2],Conns=[wye wye wye],kvs=[7.967 0.12 0.12],kvas=[15.000000000 15.000000000 15.000000000],Taps=[1,1.000000000,1.000000000],%loadloss=1.600000000,%noloadloss=0.400000000
new transformer.183436 Phases=3,Windings=2,Buses=[BMT102966292.1.2.3 BBT1447587.1.2.3.0],Conns=[delta wye],kvs=[13.8 0.22],kvas=[45.000000000 45.000000000],Taps=[1,1.000000000],%loadloss=1.522000000,%noloadloss=0.377777000
new transformer.183548 Phases=3,Windings=2,Buses=[BMT163040193.1.2.3 BBT1448455.1.2.3.0],Conns=[delta wye],kvs=[13.8 0.22],kvas=[45.000000000 45.000000000],Taps=[1,1.000000000],%loadloss=1.522000000,%noloadloss=0.377777000
new transformer.183555 Phases=3,Windings=2,Buses=[BMT153294284.1.2.3 BBT1448490.1.2.3.0],Conns=[delta wye],kvs=[13.8 0.22],kvas=[75.000000000 75.000000000],Taps=[1,1.000000000],%loadloss=1.340000000,%noloadloss=0.340000000
new transformer.183583 Phases=1,Windings=3,Buses=[BMT153294398.3 BBT1448728.1.0 BBT1448728.0.2],Conns=[wye wye wye],kvs=[7.967 0.12 0.12],kvas=[35.000000000 35.000000000 35.000000000],Taps=[1,1.000000000,1.000000000],%loadloss=1.293000000,%noloadloss=0.342857000
new transformer.183590 Phases=1,Windings=3,Buses=[BMT153294397.3 BBT1448805.1.0 BBT1448805.0.2],Conns=[wye wye wye],kvs=[7.967 0.12 0.12],kvas=[35.000000000 35.000000000 35.000000000],Taps=[1,1.000000000,1.000000000],%loadloss=1.293000000,%noloadloss=0.342857000
new transformer.183618 Phases=3,Windings=2,Buses=[BMT129934016.1.2.3 BBT1449218.1.2.3.0],Conns=[delta wye],kvs=[13.8 0.22],kvas=[45.000000000 45.000000000],Taps=[1,1.000000000],%loadloss=1.522000000,%noloadloss=0.377777000
new transformer.183716 Phases=3,Windings=2,Buses=[BMT129933974.1.2.3 BBT1450163.1.2.3.0],Conns=[delta wye],kvs=[13.8 0.22],kvas=[75.000000000 75.000000000],Taps=[1,1.000000000],%loadloss=1.340000000,%noloadloss=0.340000000
new transformer.183814 Phases=3,Windings=2,Buses=[BMT153294282.1.2.3 BBT1450821.1.2.3.0],Conns=[delta wye],kvs=[13.8 0.22],kvas=[45.000000000 45.000000000],Taps=[1,1.000000000],%loadloss=1.522000000,%noloadloss=0.377777000
new transformer.183835 Phases=3,Windings=2,Buses=[BMT163040197.1.2.3 BBT1451017.1.2.3.0],Conns=[delta wye],kvs=[13.8 0.22],kvas=[30.000000000 30.000000000],Taps=[1,1.000000000],%loadloss=1.667000000,%noloadloss=0.433333000
new transformer.183842 Phases=3,Windings=2,Buses=[BMT129934002.1.2.3 BBT1451052.1.2.3.0],Conns=[delta wye],kvs=[13.8 0.22],kvas=[45.000000000 45.000000000],Taps=[1,1.000000000],%loadloss=1.522000000,%noloadloss=0.377777000
new transformer.183870 Phases=1,Windings=3,Buses=[BMT153294399.3 BBT1451269.1.0 BBT1451269.0.2],Conns=[wye wye wye],kvs=[7.967 0.12 0.12],kvas=[35.000000000 35.000000000 35.000000000],Taps=[1,1.000000000,1.000000000],%loadloss=1.293000000,%noloadloss=0.342857000
new transformer.183898 Phases=3,Windings=2,Buses=[BMT153294063.1.2.3 BBT1451444.1.2.3.0],Conns=[delta wye],kvs=[13.8 0.22],kvas=[45.000000000 45.000000000],Taps=[1,1.000000000],%loadloss=1.522000000,%noloadloss=0.377777000
new transformer.373787 Phases=3,Windings=2,Buses=[BMT169001185.1.2.3 BBT3233637.1.2.3.0],Conns=[delta wye],kvs=[13.8 0.22],kvas=[45.000000000 45.000000000],Taps=[1,1.000000000],%loadloss=1.522000000,%noloadloss=0.377777000
new transformer.373794 Phases=3,Windings=2,Buses=[BMT169001186.1.2.3 BBT3233686.1.2.3.0],Conns=[delta wye],kvs=[13.8 0.22],kvas=[45.000000000 45.000000000],Taps=[1,1.000000000],%loadloss=1.522000000,%noloadloss=0.377777000
new transformer.394857 Phases=3,Windings=2,Buses=[BMT102964087.1.2.3 BBT3544689.1.2.3.0],Conns=[delta wye],kvs=[13.8 0.22],kvas=[15.000000000 15.000000000],Taps=[1,1.000000000],%loadloss=1.967000000,%noloadloss=0.500000000
new transformer.394864 Phases=1,Windings=3,Buses=[BMT102964094.1 BBT3544724.1.0 BBT3544724.0.2],Conns=[wye wye wye],kvs=[7.967 0.12 0.12],kvas=[10.000000000 10.000000000 10.000000000],Taps=[1,1.000000000,1.000000000],%loadloss=1.800000000,%noloadloss=0.450000000
new transformer.394871 Phases=1,Windings=3,Buses=[BMT169942355.2 BBT3544773.1.0 BBT3544773.0.2],Conns=[wye wye wye],kvs=[7.967 0.12 0.12],kvas=[15.000000000 15.000000000 15.000000000],Taps=[1,1.000000000,1.000000000],%loadloss=1.600000000,%noloadloss=0.400000000
new transformer.395130 Phases=1,Windings=3,Buses=[BMT102964304.2 BBT3547818.1.0 BBT3547818.0.2],Conns=[wye wye wye],kvs=[7.967 0.12 0.12],kvas=[35.000000000 35.000000000 35.000000000],Taps=[1,1.000000000,1.000000000],%loadloss=1.293000000,%noloadloss=0.342857000
new transformer.1313503 Phases=3,Windings=2,Buses=[BMT162496656.1.2.3 BBT90694403.1.2.3.0],Conns=[delta wye],kvs=[13.8 0.22],kvas=[45.000000000 45.000000000],Taps=[1,1.000000000],%loadloss=1.522000000,%noloadloss=0.377777000
new transformer.1314294 Phases=3,Windings=2,Buses=[BMT163695781.1.2.3 BBT90974060.1.2.3.0],Conns=[delta wye],kvs=[13.8 0.22],kvas=[75.000000000 75.000000000],Taps=[1,1.000000000],%loadloss=1.340000000,%noloadloss=0.340000000
new transformer.134205 Phases=1,Windings=3,Buses=[BMT102964269.2 BBT1188888.1.0 BBT1188888.0.2],Conns=[wye wye wye],kvs=[7.967 0.12 0.12],kvas=[10.000000000 10.000000000 10.000000000],Taps=[1,1.000000000,1.000000000],%loadloss=1.800000000,%noloadloss=0.450000000
new transformer.1401155 Phases=3,Windings=2,Buses=[BMT150726816.1.2.3 BBT150722302.1.2.3.0],Conns=[delta wye],kvs=[13.8 0.22],kvas=[45.000000000 45.000000000],Taps=[1,1.000000000],%loadloss=1.522000000,%noloadloss=0.377777000
new transformer.179677 Phases=1,Windings=3,Buses=[BMT155361873.2 BBT1420077.1.0 BBT1420077.0.2],Conns=[wye wye wye],kvs=[7.967 0.12 0.12],kvas=[15.000000000 15.000000000 15.000000000],Taps=[1,1.000000000,1.000000000],%loadloss=1.600000000,%noloadloss=0.400000000
new transformer.179740 Phases=1,Windings=3,Buses=[BMT155361867.2 BBT1420350.1.0 BBT1420350.0.2],Conns=[wye wye wye],kvs=[7.967 0.12 0.12],kvas=[15.000000000 15.000000000 15.000000000],Taps=[1,1.000000000,1.000000000],%loadloss=1.600000000,%noloadloss=0.400000000
new transformer.179964 Phases=1,Windings=3,Buses=[BMT166130600.2 BBT1421736.1.0 BBT1421736.0.2],Conns=[wye wye wye],kvs=[7.967 0.12 0.12],kvas=[10.000000000 10.000000000 10.000000000],Taps=[1,1.000000000,1.000000000],%loadloss=1.800000000,%noloadloss=0.450000000
new transformer.179985 Phases=1,Windings=3,Buses=[BMT166130601.2 BBT1421862.1.0 BBT1421862.0.2],Conns=[wye wye wye],kvs=[7.967 0.12 0.12],kvas=[10.000000000 10.000000000 10.000000000],Taps=[1,1.000000000,1.000000000],%loadloss=1.800000000,%noloadloss=0.450000000
new transformer.180013 Phases=1,Windings=3,Buses=[BMT166130599.2 BBT1422058.1.0 BBT1422058.0.2],Conns=[wye wye wye],kvs=[7.967 0.12 0.12],kvas=[5.000000000 5.000000000 5.000000000],Taps=[1,1.000000000,1.000000000],%loadloss=1.900000000,%noloadloss=0.600000000
new transformer.180041 Phases=1,Windings=3,Buses=[BMT111809742.2 BBT1422268.1.0 BBT1422268.0.2],Conns=[wye wye wye],kvs=[7.967 0.12 0.12],kvas=[15.000000000 15.000000000 15.000000000],Taps=[1,1.000000000,1.000000000],%loadloss=1.600000000,%noloadloss=0.400000000
new transformer.180062 Phases=1,Windings=3,Buses=[BMT111809735.2 BBT1422338.1.0 BBT1422338.0.2],Conns=[wye wye wye],kvs=[7.967 0.12 0.12],kvas=[10.000000000 10.000000000 10.000000000],Taps=[1,1.000000000,1.000000000],%loadloss=1.800000000,%noloadloss=0.450000000
new transformer.180090 Phases=1,Windings=3,Buses=[BMT169942353.2 BBT1422576.1.0 BBT1422576.0.2],Conns=[wye wye wye],kvs=[7.967 0.12 0.12],kvas=[10.000000000 10.000000000 10.000000000],Taps=[1,1.000000000,1.000000000],%loadloss=1.800000000,%noloadloss=0.450000000
new transformer.180111 Phases=1,Windings=3,Buses=[BMT169942351.2 BBT1422618.1.0 BBT1422618.0.2],Conns=[wye wye wye],kvs=[7.967 0.12 0.12],kvas=[10.000000000 10.000000000 10.000000000],Taps=[1,1.000000000,1.000000000],%loadloss=1.800000000,%noloadloss=0.450000000
new transformer.180125 Phases=1,Windings=3,Buses=[BMT166130595.2 BBT1422681.1.0 BBT1422681.0.2],Conns=[wye wye wye],kvs=[7.967 0.12 0.12],kvas=[10.000000000 10.000000000 10.000000000],Taps=[1,1.000000000,1.000000000],%loadloss=1.800000000,%noloadloss=0.450000000
new transformer.184360 Phases=3,Windings=2,Buses=[BMT168071042.1.2.3 BBT1454713.1.2.3.0],Conns=[delta wye],kvs=[13.8 0.22],kvas=[150.000000000 150.000000000],Taps=[1,1.000000000],%loadloss=1.127000000,%noloadloss=0.280000000
new transformer.184465 Phases=3,Windings=2,Buses=[BMT162496653.1.2.3 BBT1455630.1.2.3.0],Conns=[delta wye],kvs=[13.8 0.22],kvas=[45.000000000 45.000000000],Taps=[1,1.000000000],%loadloss=1.522000000,%noloadloss=0.377777000
new transformer.184472 Phases=3,Windings=2,Buses=[BMT168071044.1.2.3 BBT1455735.1.2.3.0],Conns=[delta wye],kvs=[13.8 0.22],kvas=[75.000000000 75.000000000],Taps=[1,1.000000000],%loadloss=1.340000000,%noloadloss=0.340000000
new transformer.184563 Phases=1,Windings=3,Buses=[BMT166564196.2 BBT1456085.1.0 BBT1456085.0.2],Conns=[wye wye wye],kvs=[7.967 0.12 0.12],kvas=[15.000000000 15.000000000 15.000000000],Taps=[1,1.000000000,1.000000000],%loadloss=1.600000000,%noloadloss=0.400000000
new transformer.184619 Phases=3,Windings=2,Buses=[BMT162496652.1.2.3 BBT1456337.1.2.3.0],Conns=[delta wye],kvs=[13.8 0.22],kvas=[75.000000000 75.000000000],Taps=[1,1.000000000],%loadloss=1.340000000,%noloadloss=0.340000000
new transformer.367018 Phases=1,Windings=3,Buses=[BMT155361869.3 BBT2986138.1.0 BBT2986138.0.2],Conns=[wye wye wye],kvs=[7.967 0.12 0.12],kvas=[5.000000000 5.000000000 5.000000000],Taps=[1,1.000000000,1.000000000],%loadloss=1.900000000,%noloadloss=0.600000000
new transformer.392463 Phases=1,Windings=3,Buses=[BMT149165726.2 BBT3519104.1.0 BBT3519104.0.2],Conns=[wye wye wye],kvs=[7.967 0.12 0.12],kvas=[10.000000000 10.000000000 10.000000000],Taps=[1,1.000000000,1.000000000],%loadloss=1.800000000,%noloadloss=0.450000000
new transformer.401507 Phases=3,Windings=2,Buses=[BMT102965557.1.2.3 BBT3622088.1.2.3.0],Conns=[delta wye],kvs=[13.8 0.22],kvas=[30.000000000 30.000000000],Taps=[1,1.000000000],%loadloss=1.667000000,%noloadloss=0.433333000
new transformer.185018 Phases=3,Windings=2,Buses=[BMT166564199.1.2.3 BBT1459921.1.2.3.0],Conns=[delta wye],kvs=[13.8 0.22],kvas=[45.000000000 45.000000000],Taps=[1,1.000000000],%loadloss=1.522000000,%noloadloss=0.377777000
new transformer.185102 Phases=3,Windings=2,Buses=[BMT162496649.1.2.3 BBT1460698.1.2.3.0],Conns=[delta wye],kvs=[13.8 0.22],kvas=[30.000000000 30.000000000],Taps=[1,1.000000000],%loadloss=1.667000000,%noloadloss=0.433333000
new transformer.185151 Phases=3,Windings=2,Buses=[BMT156455481.1.2.3 BBT1460992.1.2.3.0],Conns=[delta wye],kvs=[13.8 0.22],kvas=[30.000000000 30.000000000],Taps=[1,1.000000000],%loadloss=1.667000000,%noloadloss=0.433333000
new transformer.388935 Phases=3,Windings=2,Buses=[BMT169001200.1.2.3 BBT3477412.1.2.3.0],Conns=[delta wye],kvs=[13.8 0.22],kvas=[45.000000000 45.000000000],Taps=[1,1.000000000],%loadloss=1.522000000,%noloadloss=0.377777000
new transformer.421282 Phases=3,Windings=2,Buses=[BMT102964122.1.2.3 BBT4103632.1.2.3.0],Conns=[delta wye],kvs=[13.8 0.22],kvas=[30.000000000 30.000000000],Taps=[1,1.000000000],%loadloss=1.667000000,%noloadloss=0.433333000
new transformer.179257 Phases=1,Windings=3,Buses=[BMT157530643.2 BBT1416892.1.0 BBT1416892.0.2],Conns=[wye wye wye],kvs=[7.967 0.12 0.12],kvas=[10.000000000 10.000000000 10.000000000],Taps=[1,1.000000000,1.000000000],%loadloss=1.800000000,%noloadloss=0.450000000
new transformer.179271 Phases=1,Windings=3,Buses=[BMT149111564.1 BBT1416997.1.0 BBT1416997.0.2],Conns=[wye wye wye],kvs=[7.967 0.12 0.12],kvas=[5.000000000 5.000000000 5.000000000],Taps=[1,1.000000000,1.000000000],%loadloss=1.900000000,%noloadloss=0.600000000
new transformer.179285 Phases=1,Windings=3,Buses=[BMT149111562.1 BBT1417088.1.0 BBT1417088.0.2],Conns=[wye wye wye],kvs=[7.967 0.12 0.12],kvas=[5.000000000 5.000000000 5.000000000],Taps=[1,1.000000000,1.000000000],%loadloss=1.900000000,%noloadloss=0.600000000
new transformer.179299 Phases=1,Windings=3,Buses=[BMT169001199.2 BBT1417228.1.0 BBT1417228.0.2],Conns=[wye wye wye],kvs=[7.967 0.12 0.12],kvas=[10.000000000 10.000000000 10.000000000],Taps=[1,1.000000000,1.000000000],%loadloss=1.800000000,%noloadloss=0.450000000
new transformer.179313 Phases=1,Windings=3,Buses=[BMT149111563.1 BBT1417354.1.0 BBT1417354.0.2],Conns=[wye wye wye],kvs=[7.967 0.12 0.12],kvas=[5.000000000 5.000000000 5.000000000],Taps=[1,1.000000000,1.000000000],%loadloss=1.900000000,%noloadloss=0.600000000
new transformer.179362 Phases=3,Windings=2,Buses=[BMT169001177.1.2.3 BBT1417648.1.2.3.0],Conns=[delta wye],kvs=[13.8 0.22],kvas=[30.000000000 30.000000000],Taps=[1,1.000000000],%loadloss=1.667000000,%noloadloss=0.433333000
new transformer.179383 Phases=3,Windings=2,Buses=[BMT102963653.1.2.3 BBT1418026.1.2.3.0],Conns=[delta wye],kvs=[13.8 0.22],kvas=[75.000000000 75.000000000],Taps=[1,1.000000000],%loadloss=1.340000000,%noloadloss=0.340000000
new transformer.179411 Phases=1,Windings=3,Buses=[BMT102963646.2 BBT1418208.1.0 BBT1418208.0.2],Conns=[wye wye wye],kvs=[7.967 0.12 0.12],kvas=[15.000000000 15.000000000 15.000000000],Taps=[1,1.000000000,1.000000000],%loadloss=1.600000000,%noloadloss=0.400000000
new transformer.461875 Phases=3,Windings=2,Buses=[BMT162786856.1.2.3 BBT5017181.1.2.3.0],Conns=[delta wye],kvs=[13.8 0.22],kvas=[45.000000000 45.000000000],Taps=[1,1.000000000],%loadloss=1.522000000,%noloadloss=0.377777000
new transformer.182134 Phases=3,Windings=2,Buses=[BMT154627196.1.2.3 BBT1438368.1.2.3.0],Conns=[delta wye],kvs=[13.8 0.22],kvas=[100.000000000 100.000000000],Taps=[1,1.000000000],%loadloss=1.218000000,%noloadloss=0.335000000
new transformer.398525 Phases=1,Windings=3,Buses=[BMT163695780.2 BBT3593395.1.0 BBT3593395.0.2],Conns=[wye wye wye],kvs=[7.967 0.12 0.12],kvas=[5.000000000 5.000000000 5.000000000],Taps=[1,1.000000000,1.000000000],%loadloss=1.900000000,%noloadloss=0.600000000
new transformer.435716 Phases=3,Windings=2,Buses=[BMT163904137.1.2.3 BBT4358159.1.2.3.0],Conns=[delta wye],kvs=[13.8 0.22],kvas=[75.000000000 75.000000000],Taps=[1,1.000000000],%loadloss=1.340000000,%noloadloss=0.340000000
new transformer.456114 Phases=1,Windings=3,Buses=[BMT149111561.1 BBT4691373.1.0 BBT4691373.0.2],Conns=[wye wye wye],kvs=[7.967 0.12 0.12],kvas=[10.000000000 10.000000000 10.000000000],Taps=[1,1.000000000,1.000000000],%loadloss=1.800000000,%noloadloss=0.450000000
new transformer.462036 Phases=3,Windings=2,Buses=[BMT102966152.1.2.3 BBT5029886.1.2.3.0],Conns=[delta wye],kvs=[13.8 0.22],kvas=[75.000000000 75.000000000],Taps=[1,1.000000000],%loadloss=1.340000000,%noloadloss=0.340000000
new transformer.1057233 Phases=3,Windings=2,Buses=[BMT150726294.1.2.3 BBT9764050.1.2.3.0],Conns=[delta wye],kvs=[13.8 0.22],kvas=[45.000000000 45.000000000],Taps=[1,1.000000000],%loadloss=1.522000000,%noloadloss=0.377777000
new transformer.1384756 Phases=1,Windings=3,Buses=[BMT163690117.1 BBT138268342.1.0 BBT138268342.0.2],Conns=[wye wye wye],kvs=[7.967 0.12 0.12],kvas=[10.000000000 10.000000000 10.000000000],Taps=[1,1.000000000,1.000000000],%loadloss=1.800000000,%noloadloss=0.450000000
new transformer.1394582 Phases=1,Windings=3,Buses=[BMT159978244.1 BBT149112092.1.0 BBT149112092.0.2],Conns=[wye wye wye],kvs=[7.967 0.12 0.12],kvas=[10.000000000 10.000000000 10.000000000],Taps=[1,1.000000000,1.000000000],%loadloss=1.800000000,%noloadloss=0.450000000
new transformer.1394840 Phases=1,Windings=3,Buses=[BMT149167548.1 BBT149166676.1.0 BBT149166676.0.2],Conns=[wye wye wye],kvs=[7.967 0.12 0.12],kvas=[5.000000000 5.000000000 5.000000000],Taps=[1,1.000000000,1.000000000],%loadloss=1.900000000,%noloadloss=0.600000000
new transformer.1426513 Phases=3,Windings=2,Buses=[BMT156455482.1.2.3 BBT156455483.1.2.3.0],Conns=[delta wye],kvs=[13.8 0.22],kvas=[45.000000000 45.000000000],Taps=[1,1.000000000],%loadloss=1.522000000,%noloadloss=0.377777000
new transformer.144824 Phases=1,Windings=3,Buses=[BMT102964290.2 BBT1232561.1.0 BBT1232561.0.2],Conns=[wye wye wye],kvs=[7.967 0.12 0.12],kvas=[15.000000000 15.000000000 15.000000000],Taps=[1,1.000000000,1.000000000],%loadloss=1.600000000,%noloadloss=0.400000000
new transformer.182904 Phases=3,Windings=2,Buses=[BMT168796372.1.2.3 BBT1443681.1.2.3.0],Conns=[delta wye],kvs=[13.8 0.22],kvas=[45.000000000 45.000000000],Taps=[1,1.000000000],%loadloss=1.522000000,%noloadloss=0.377777000
new transformer.182918 Phases=3,Windings=2,Buses=[BMT168796373.1.2.3 BBT1443814.1.2.3.0],Conns=[delta wye],kvs=[13.8 0.22],kvas=[45.000000000 45.000000000],Taps=[1,1.000000000],%loadloss=1.522000000,%noloadloss=0.377777000
new transformer.183149 Phases=3,Windings=2,Buses=[BMT168796371.1.2.3 BBT1445634.1.2.3.0],Conns=[delta wye],kvs=[13.8 0.22],kvas=[30.000000000 30.000000000],Taps=[1,1.000000000],%loadloss=1.667000000,%noloadloss=0.433333000
new transformer.183184 Phases=1,Windings=3,Buses=[BMT153294288.3 BBT1445788.1.0 BBT1445788.0.2],Conns=[wye wye wye],kvs=[7.967 0.12 0.12],kvas=[35.000000000 35.000000000 35.000000000],Taps=[1,1.000000000,1.000000000],%loadloss=1.293000000,%noloadloss=0.342857000
new transformer.183226 Phases=3,Windings=2,Buses=[BMT153294285.1.2.3 BBT1446145.1.2.3.0],Conns=[delta wye],kvs=[13.8 0.22],kvas=[45.000000000 45.000000000],Taps=[1,1.000000000],%loadloss=1.522000000,%noloadloss=0.377777000
new transformer.183296 Phases=3,Windings=2,Buses=[BMT154627191.1.2.3 BBT1446677.1.2.3.0],Conns=[delta wye],kvs=[13.8 0.22],kvas=[75.000000000 75.000000000],Taps=[1,1.000000000],%loadloss=1.340000000,%noloadloss=0.340000000
new transformer.183415 Phases=3,Windings=2,Buses=[BMT102966299.1.2.3 BBT1447545.1.2.3.0],Conns=[delta wye],kvs=[13.8 0.22],kvas=[45.000000000 45.000000000],Taps=[1,1.000000000],%loadloss=1.522000000,%noloadloss=0.377777000
new transformer.400632 Phases=1,Windings=3,Buses=[BMT102964227.1 BBT3612568.1.0 BBT3612568.0.2],Conns=[wye wye wye],kvs=[7.967 0.12 0.12],kvas=[10.000000000 10.000000000 10.000000000],Taps=[1,1.000000000,1.000000000],%loadloss=1.800000000,%noloadloss=0.450000000
new transformer.437823 Phases=1,Windings=3,Buses=[BMT155361865.1 BBT4399466.1.0 BBT4399466.0.2],Conns=[wye wye wye],kvs=[7.967 0.12 0.12],kvas=[5.000000000 5.000000000 5.000000000],Taps=[1,1.000000000,1.000000000],%loadloss=1.900000000,%noloadloss=0.600000000
new transformer.181252 Phases=3,Windings=2,Buses=[BMT163694196.1.2.3 BBT1431592.1.2.3.0],Conns=[delta wye],kvs=[13.8 0.22],kvas=[75.000000000 75.000000000],Taps=[1,1.000000000],%loadloss=1.340000000,%noloadloss=0.340000000
new transformer.181455 Phases=1,Windings=3,Buses=[BMT102965466.2 BBT1433146.1.0 BBT1433146.0.2],Conns=[wye wye wye],kvs=[7.967 0.12 0.12],kvas=[10.000000000 10.000000000 10.000000000],Taps=[1,1.000000000,1.000000000],%loadloss=1.800000000,%noloadloss=0.450000000
new transformer.181469 Phases=1,Windings=3,Buses=[BMT102965452.2 BBT1433307.1.0 BBT1433307.0.2],Conns=[wye wye wye],kvs=[7.967 0.12 0.12],kvas=[10.000000000 10.000000000 10.000000000],Taps=[1,1.000000000,1.000000000],%loadloss=1.800000000,%noloadloss=0.450000000
new transformer.186040 Phases=3,Windings=2,Buses=[BMT168071046.1.2.3 BBT1470456.1.2.3.0],Conns=[delta wye],kvs=[13.8 0.22],kvas=[75.000000000 75.000000000],Taps=[1,1.000000000],%loadloss=1.340000000,%noloadloss=0.340000000
new transformer.186194 Phases=3,Windings=2,Buses=[BMT168071045.1.2.3 BBT1472003.1.2.3.0],Conns=[delta wye],kvs=[13.8 0.22],kvas=[30.000000000 30.000000000],Taps=[1,1.000000000],%loadloss=1.667000000,%noloadloss=0.433333000
new transformer.405224 Phases=1,Windings=3,Buses=[BMT102963737.3 BBT3673678.1.0 BBT3673678.0.2],Conns=[wye wye wye],kvs=[7.967 0.12 0.12],kvas=[15.000000000 15.000000000 15.000000000],Taps=[1,1.000000000,1.000000000],%loadloss=1.600000000,%noloadloss=0.400000000
new transformer.419749 Phases=3,Windings=2,Buses=[BMT150726295.1.2.3 BBT4079916.1.2.3.0],Conns=[delta wye],kvs=[13.8 0.22],kvas=[45.000000000 45.000000000],Taps=[1,1.000000000],%loadloss=1.522000000,%noloadloss=0.377777000
new transformer.419805 Phases=1,Windings=3,Buses=[BMT164689170.2 BBT4080805.1.0 BBT4080805.0.2],Conns=[wye wye wye],kvs=[7.967 0.12 0.12],kvas=[15.000000000 15.000000000 15.000000000],Taps=[1,1.000000000,1.000000000],%loadloss=1.600000000,%noloadloss=0.400000000
new transformer.466362 Phases=3,Windings=2,Buses=[BMT149165622.1.2.3 BBT5388545.1.2.3.0],Conns=[delta wye],kvs=[13.8 0.22],kvas=[45.000000000 45.000000000],Taps=[1,1.000000000],%loadloss=1.522000000,%noloadloss=0.377777000
new transformer.438754 Phases=1,Windings=3,Buses=[BMT167511072.3 BBT4412003.1.0 BBT4412003.0.2],Conns=[wye wye wye],kvs=[7.967 0.12 0.12],kvas=[5.000000000 5.000000000 5.000000000],Taps=[1,1.000000000,1.000000000],%loadloss=1.900000000,%noloadloss=0.600000000
new transformer.402130 Phases=1,Windings=3,Buses=[BMT102965480.2 BBT3630579.1.0 BBT3630579.0.2],Conns=[wye wye wye],kvs=[7.967 0.12 0.12],kvas=[10.000000000 10.000000000 10.000000000],Taps=[1,1.000000000,1.000000000],%loadloss=1.800000000,%noloadloss=0.450000000
new transformer.465032 Phases=3,Windings=2,Buses=[BMT163903969.1.2.3 BBT5239018.1.2.3.0],Conns=[delta wye],kvs=[13.8 0.22],kvas=[45.000000000 45.000000000],Taps=[1,1.000000000],%loadloss=1.522000000,%noloadloss=0.377777000
new transformer.1062406 Phases=1,Windings=3,Buses=[BMT106929601.3 BBT12180394.1.0 BBT12180394.0.2],Conns=[wye wye wye],kvs=[7.967 0.12 0.12],kvas=[10.000000000 10.000000000 10.000000000],Taps=[1,1.000000000,1.000000000],%loadloss=1.800000000,%noloadloss=0.450000000
new transformer.144712 Phases=3,Windings=2,Buses=[BMT102964192.1.2.3 BBT1232043.1.2.3.0],Conns=[delta wye],kvs=[13.8 0.22],kvas=[30.000000000 30.000000000],Taps=[1,1.000000000],%loadloss=1.667000000,%noloadloss=0.433333000
new transformer.144740 Phases=1,Windings=3,Buses=[BMT102964178.1 BBT1232099.1.0 BBT1232099.0.2],Conns=[wye wye wye],kvs=[7.967 0.12 0.12],kvas=[15.000000000 15.000000000 15.000000000],Taps=[1,1.000000000,1.000000000],%loadloss=1.600000000,%noloadloss=0.400000000
new transformer.144747 Phases=1,Windings=3,Buses=[BMT102964206.1 BBT1232113.1.0 BBT1232113.0.2],Conns=[wye wye wye],kvs=[7.967 0.12 0.12],kvas=[10.000000000 10.000000000 10.000000000],Taps=[1,1.000000000,1.000000000],%loadloss=1.800000000,%noloadloss=0.450000000
new transformer.182148 Phases=3,Windings=2,Buses=[BMT150726812.1.2.3 BBT1438578.1.2.3.0],Conns=[delta wye],kvs=[13.8 0.22],kvas=[75.000000000 75.000000000],Taps=[1,1.000000000],%loadloss=1.340000000,%noloadloss=0.340000000
new transformer.182288 Phases=3,Windings=2,Buses=[BMT151235513.1.2.3 BBT1439642.1.2.3.0],Conns=[delta wye],kvs=[13.8 0.22],kvas=[30.000000000 30.000000000],Taps=[1,1.000000000],%loadloss=1.667000000,%noloadloss=0.433333000
new transformer.182358 Phases=1,Windings=3,Buses=[BMT102963156.1 BBT1440230.1.0 BBT1440230.0.2],Conns=[wye wye wye],kvs=[7.967 0.12 0.12],kvas=[10.000000000 10.000000000 10.000000000],Taps=[1,1.000000000,1.000000000],%loadloss=1.800000000,%noloadloss=0.450000000
new transformer.182435 Phases=1,Windings=3,Buses=[BMT132200693.2 BBT1440650.1.0 BBT1440650.0.2],Conns=[wye wye wye],kvs=[7.967 0.12 0.12],kvas=[15.000000000 15.000000000 15.000000000],Taps=[1,1.000000000,1.000000000],%loadloss=1.600000000,%noloadloss=0.400000000
new transformer.182498 Phases=1,Windings=3,Buses=[BMT102963163.1 BBT1441119.1.0 BBT1441119.0.2],Conns=[wye wye wye],kvs=[7.967 0.12 0.12],kvas=[10.000000000 10.000000000 10.000000000],Taps=[1,1.000000000,1.000000000],%loadloss=1.800000000,%noloadloss=0.450000000
new transformer.182512 Phases=1,Windings=3,Buses=[BMT132200700.2 BBT1441322.1.0 BBT1441322.0.2],Conns=[wye wye wye],kvs=[7.967 0.12 0.12],kvas=[25.000000000 25.000000000 25.000000000],Taps=[1,1.000000000,1.000000000],%loadloss=1.420000000,%noloadloss=0.320000000
new transformer.182519 Phases=1,Windings=3,Buses=[BMT166942735.2 BBT1441336.1.0 BBT1441336.0.2],Conns=[wye wye wye],kvs=[7.967 0.12 0.12],kvas=[25.000000000 25.000000000 25.000000000],Taps=[1,1.000000000,1.000000000],%loadloss=1.420000000,%noloadloss=0.320000000
new transformer.182596 Phases=3,Windings=2,Buses=[BMT166942740.1.2.3 BBT1441868.1.2.3.0],Conns=[delta wye],kvs=[13.8 0.22],kvas=[30.000000000 30.000000000],Taps=[1,1.000000000],%loadloss=1.667000000,%noloadloss=0.433333000
new transformer.182603 Phases=3,Windings=2,Buses=[BMT166942741.1.2.3 BBT1441882.1.2.3.0],Conns=[delta wye],kvs=[13.8 0.22],kvas=[30.000000000 30.000000000],Taps=[1,1.000000000],%loadloss=1.667000000,%noloadloss=0.433333000
new transformer.182652 Phases=1,Windings=3,Buses=[BMT166942739.2 BBT1442204.1.0 BBT1442204.0.2],Conns=[wye wye wye],kvs=[7.967 0.12 0.12],kvas=[15.000000000 15.000000000 15.000000000],Taps=[1,1.000000000,1.000000000],%loadloss=1.600000000,%noloadloss=0.400000000
new transformer.385281 Phases=1,Windings=3,Buses=[BMT102963723.3 BBT3425773.1.0 BBT3425773.0.2],Conns=[wye wye wye],kvs=[7.967 0.12 0.12],kvas=[15.000000000 15.000000000 15.000000000],Taps=[1,1.000000000,1.000000000],%loadloss=1.600000000,%noloadloss=0.400000000
new transformer.395473 Phases=1,Windings=3,Buses=[BMT102964143.1 BBT3551185.1.0 BBT3551185.0.2],Conns=[wye wye wye],kvs=[7.967 0.12 0.12],kvas=[10.000000000 10.000000000 10.000000000],Taps=[1,1.000000000,1.000000000],%loadloss=1.800000000,%noloadloss=0.450000000
new transformer.402942 Phases=1,Windings=3,Buses=[BMT102963744.3 BBT3644327.1.0 BBT3644327.0.2],Conns=[wye wye wye],kvs=[7.967 0.12 0.12],kvas=[35.000000000 35.000000000 35.000000000],Taps=[1,1.000000000,1.000000000],%loadloss=1.293000000,%noloadloss=0.342857000
new transformer.427232 Phases=1,Windings=3,Buses=[BMT102964822.3 BBT4177657.1.0 BBT4177657.0.2],Conns=[wye wye wye],kvs=[7.967 0.12 0.12],kvas=[10.000000000 10.000000000 10.000000000],Taps=[1,1.000000000,1.000000000],%loadloss=1.800000000,%noloadloss=0.450000000
new transformer.437298 Phases=1,Windings=3,Buses=[BMT163694740.1 BBT4394006.1.0 BBT4394006.0.2],Conns=[wye wye wye],kvs=[7.967 0.12 0.12],kvas=[5.000000000 5.000000000 5.000000000],Taps=[1,1.000000000,1.000000000],%loadloss=1.900000000,%noloadloss=0.600000000
