CemigDFeeders/SLAT309/SLAT309SegmentosBT.dss
new line.10060961 bus1=BBT2918448.1.2.3.0,bus2=BBT2918455.1.2.3.0,Phases=3,Linecode=BT514_BT514_7_3_1,Length=0.000510000,Units=km
new line.10643186 bus1=BBT3129582.1.2.0,bus2=BBT3129589.1.2.0,Phases=2,Linecode=BT808_BT808_4_2_3,Length=0.058820000,Units=km
new line.10643200 bus1=BBT3129589.1.2.0,bus2=BBT3129610.1.2.0,Phases=2,Linecode=BT808_BT808_4_2_3,Length=0.058820000,Units=km
new line.10643249 bus1=BBT3129610.1.2.0,bus2=BBT3129624.1.2.0,Phases=2,Linecode=BT808_BT808_4_2_3,Length=0.057340000,Units=km
new line.11050215 bus1=BBT3292101.1.2.0,bus2=BBT3768647.1.2.0,Phases=2,Linecode=BT304_BT304_5_2_1,Length=0.018380000,Units=km
new line.11050236 bus1=BBT3292122.1.2.0,bus2=BBT3292129.1.2.0,Phases=2,Linecode=BT304_BT304_5_2_1,Length=0.021060000,Units=km
new line.11050243 bus1=BBT3292122.1.2.0,bus2=BBT3292136.1.2.0,Phases=2,Linecode=BT304_BT304_5_2_1,Length=0.013350000,Units=km
new line.11050271 bus1=BBT3292115.1.2.0,bus2=BBT3768640.1.2.0,Phases=2,Linecode=BT304_BT304_5_2_1,Length=0.009070000,Units=km
new line.11066525 bus1=BBT3300172.1.2.3.0,bus2=BBT3300179.1.2.3.0,Phases=3,Linecode=BT803_BT803_4_3_4,Length=0.043430000,Units=km
new line.11066546 bus1=BBT3300179.1.2.3.0,bus2=BBT3300186.1.2.3.0,Phases=3,Linecode=BT803_BT803_4_3_4,Length=0.034840000,Units=km
new line.11066567 bus1=BBT3300186.1.2.3.0,bus2=BBT3300193.1.2.3.0,Phases=3,Linecode=BT803_BT803_4_3_4,Length=0.037030000,Units=km
new line.11066602 bus1=BBT3300193.1.2.3.0,bus2=BBT4361253.1.2.3.0,Phases=3,Linecode=BT810_BT810_4_3_4,Length=0.046880000,Units=km
new line.11694425 bus1=BBT3519104.1.2.0,bus2=BBT3519111.1.2.0,Phases=2,Linecode=BT505_BT505_7_2_1,Length=0.000510000,Units=km
new line.12105325 bus1=BBT3658859.1.2.3.0,bus2=BBT3658866.1.2.3.0,Phases=3,Linecode=BT803_BT803_4_3_4,Length=0.044120000,Units=km
new line.12105346 bus1=BBT3658873.1.2.3.0,bus2=BBT4050544.1.2.3.0,Phases=3,Linecode=BT803_BT803_4_3_4,Length=0.038610000,Units=km
new line.12144616 bus1=BBT3673685.1.2.0,bus2=BBT3673706.1.2.0,Phases=2,Linecode=BT808_BT808_4_2_3,Length=0.044030000,Units=km
new line.12144623 bus1=BBT3673678.1.2.0,bus2=BBT3673685.1.2.0,Phases=2,Linecode=BT518_BT518_7_2_1,Length=0.000510000,Units=km
new line.12144630 bus1=BBT3673685.1.2.0,bus2=BBT3673699.1.2.0,Phases=2,Linecode=BT808_BT808_4_2_3,Length=0.045120000,Units=km
new line.12144658 bus1=BBT3673699.1.2.0,bus2=BBT4935421.1.2.0,Phases=2,Linecode=BT808_BT808_4_2_3,Length=0.040280000,Units=km
new line.12144665 bus1=BBT3673713.1.2.0,bus2=BBT3673734.1.2.0,Phases=2,Linecode=BT808_BT808_4_2_3,Length=0.046020000,Units=km
new line.12144672 bus1=BBT3673713.1.2.0,bus2=BBT3673727.1.2.0,Phases=2,Linecode=BT808_BT808_4_2_3,Length=0.045290000,Units=km
new line.12144686 bus1=BBT3673734.1.2.0,bus2=BBT4269119.1.2.0,Phases=2,Linecode=BT808_BT808_4_2_3,Length=0.060020000,Units=km
new line.13245982 bus1=BBT4132157.1.2.0,bus2=BBT4132171.1.2.0,Phases=2,Linecode=BT801_BT801_4_2_3,Length=0.029740000,Units=km
new line.13246003 bus1=BBT4132171.1.2.0,bus2=BBT4156797.1.2.0,Phases=2,Linecode=BT808_BT808_4_2_3,Length=0.039860000,Units=km
new line.13264133 bus1=BBT4140200.1.2.3.0,bus2=BBT4140207.1.2.3.0,Phases=3,Linecode=BT514_BT514_7_3_1,Length=0.000510000,Units=km
new line.13282466 bus1=BBT4146955.1.2.3.0,bus2=BBT4146983.1.2.3.0,Phases=3,Linecode=BT810_BT810_4_3_4,Length=0.043850000,Units=km
new line.13282473 bus1=BBT4146955.1.2.3.0,bus2=BBT4146962.1.2.3.0,Phases=3,Linecode=BT810_BT810_4_3_4,Length=0.038450000,Units=km
new line.13282501 bus1=BBT4146983.1.2.0,bus2=BBT12353007.1.2.0,Phases=2,Linecode=BT810_BT810_4_2_4,Length=0.045670000,Units=km
new line.13282536 bus1=BBT4146948.1.2.3.0,bus2=BBT4146955.1.2.3.0,Phases=3,Linecode=BT810_BT810_4_3_4,Length=0.036910000,Units=km
new line.13282557 bus1=BBT4146752.1.2.3.0,bus2=BBT4146948.1.2.3.0,Phases=3,Linecode=BT810_BT810_4_3_4,Length=0.037050000,Units=km
new line.13282571 bus1=BBT4146745.1.2.3.0,bus2=BBT4146752.1.2.3.0,Phases=3,Linecode=BT810_BT810_4_3_4,Length=0.036730000,Units=km
new line.13282606 bus1=BBT4146738.1.2.3.0,bus2=BBT4146745.1.2.3.0,Phases=3,Linecode=BT810_BT810_4_3_4,Length=0.038030000,Units=km
new line.13282620 bus1=BBT4146731.1.2.3.0,bus2=BBT4146738.1.2.3.0,Phases=3,Linecode=BT810_BT810_4_3_4,Length=0.038960000,Units=km
new line.13282627 bus1=BBT4146724.1.2.3.0,bus2=BBT4146731.1.2.3.0,Phases=3,Linecode=BT810_BT810_4_3_4,Length=0.042500000,Units=km
new line.13677756 bus1=BBT4358159.1.2.3.0,bus2=BBT4358166.1.2.3.0,Phases=3,Linecode=BT513_BT513_7_3_1,Length=0.000510000,Units=km
new line.13679338 bus1=BBT4361260.1.2.3.0,bus2=BBT152926937.1.2.3.0,Phases=3,Linecode=BT810_BT810_4_3_4,Length=0.040330000,Units=km
new line.13692092 bus1=BBT4376828.1.2.0,bus2=BBT4376835.1.2.0,Phases=2,Linecode=BT808_BT808_4_2_3,Length=0.044030000,Units=km
new line.14119757 bus1=BBT4947650.1.2.3.0,bus2=BBT1472073.1.2.3.0,Phases=3,Linecode=BT106_BT108_7_3_1,Length=0.015560000,Units=km
new line.14119764 bus1=BBT4947650.1.2.3.0,bus2=BBT4947727.1.2.3.0,Phases=3,Linecode=BT810_BT810_4_3_4,Length=0.031060000,Units=km
...